* testlib


* Device subcircuits
*
.subckt rsil n1 n2 l=1e-6 w=1e-6
.param rsil_res={l*7.0/w}
Rres n1 n2 r={rsil_res} rsil l=l w=w
.ends rsil

.subckt rppd n1 n2 l=1e-6 w=1e-6
.param rppd_res={l*260.0/w}
Rres n1 n2 r={rppd_res} rppd l=l w=w
.ends rppd

.subckt dantenna an cat params: w=0.48e-6 l=0.48e-6
Ddio an cat dantenna a=(w*l) p=(2*(w + l))
.ends dantenna

.subckt dpantenna an cat params: w=0.48e-6 l=0.48e-6
Ddio an cat dpantenna a=(w*l) p=(2*(w + l))
.ends dpantenna

.subckt sg13_lv_nmos s g d b params: l=0.13e-6 w=0.15e-6
Mtrans s g d b sg13_lv_nmos l=l w=w
.ends sg13_lv_nmos

.subckt sg13_lv_pmos s g d b params: l=0.13e-6 w=0.15e-6
Mtrans s g d b sg13_lv_pmos l=l w=w
.ends sg13_lv_pmos

.subckt sg13_hv_nmos s g d b params: l=0.45e-6 w=0.3e-6
Mtrans s g d b sg13_hv_nmos l=l w=w
.ends sg13_hv_nmos

.subckt sg13_hv_pmos s g d b params: l=0.45e-6 w=0.3e-6
Mtrans s g d b sg13_hv_pmos l=l w=w
.ends sg13_hv_pmos

* Library cells
*
.subckt BondPad PAD
.ends BondPad

.subckt SP6TVar0Cell wl bl bl_n vdd vss
Xpu1 vdd bit_n bit vdd sg13_lv_pmos l=1.3e-07 w=3e-07
Xpd1 bit bit_n vss vss sg13_lv_nmos l=1.3e-07 w=3e-07
Xpu2 vdd bit bit_n vdd sg13_lv_pmos l=1.3e-07 w=3e-07
Xpd2 bit_n bit vss vss sg13_lv_nmos l=1.3e-07 w=3e-07
Xpg1 bit wl bl vss sg13_lv_nmos l=1.3e-07 w=3e-07
Xpg2 bit_n wl bl_n vss sg13_lv_nmos l=1.3e-07 w=3e-07
.ends SP6TVar0Cell

.subckt SP6TVar0Array_2X1 vss vdd wl[0] wl[1] bl[0] bl_n[0]
Xinst0x0 wl[0] bl[0] bl_n[0] vdd vss SP6TVar0Cell
Xinst1x0 wl[1] bl[0] bl_n[0] vdd vss SP6TVar0Cell
.ends SP6TVar0Array_2X1

.subckt SP6TVar0Array_2X2 vss vdd wl[0] wl[1] bl[0] bl_n[0] bl[1] bl_n[1]
Xinst0x0 vss vdd wl[0] wl[1] bl[0] bl_n[0] SP6TVar0Array_2X1
Xinst0x1 vss vdd wl[0] wl[1] bl[1] bl_n[1] SP6TVar0Array_2X1
.ends SP6TVar0Array_2X2

.subckt SP6TVar0Array_4X2 vss vdd wl[0] wl[1] wl[2] wl[3] bl[0] bl_n[0] bl[1] bl_n[1]
Xinst0x0 vss vdd wl[0] wl[1] bl[0] bl_n[0] bl[1] bl_n[1] SP6TVar0Array_2X2
Xinst1x0 vss vdd wl[2] wl[3] bl[0] bl_n[0] bl[1] bl_n[1] SP6TVar0Array_2X2
.ends SP6TVar0Array_4X2

.subckt SP6TVar0Array_4X4 vss vdd wl[0] wl[1] wl[2] wl[3] bl[0] bl_n[0] bl[1] bl_n[1] bl[2] bl_n[2] bl[3] bl_n[3]
Xinst0x0 vss vdd wl[0] wl[1] wl[2] wl[3] bl[0] bl_n[0] bl[1] bl_n[1] SP6TVar0Array_4X2
Xinst0x1 vss vdd wl[0] wl[1] wl[2] wl[3] bl[2] bl_n[2] bl[3] bl_n[3] SP6TVar0Array_4X2
.ends SP6TVar0Array_4X4

.subckt SP6TVar0Array_8X4 vss vdd wl[0] wl[1] wl[2] wl[3] wl[4] wl[5] wl[6] wl[7] bl[0] bl_n[0] bl[1] bl_n[1] bl[2] bl_n[2] bl[3] bl_n[3]
Xinst0x0 vss vdd wl[0] wl[1] wl[2] wl[3] bl[0] bl_n[0] bl[1] bl_n[1] bl[2] bl_n[2] bl[3] bl_n[3] SP6TVar0Array_4X4
Xinst1x0 vss vdd wl[4] wl[5] wl[6] wl[7] bl[0] bl_n[0] bl[1] bl_n[1] bl[2] bl_n[2] bl[3] bl_n[3] SP6TVar0Array_4X4
.ends SP6TVar0Array_8X4

.subckt SP6TVar0Array_8X8 vss vdd wl[0] wl[1] wl[2] wl[3] wl[4] wl[5] wl[6] wl[7] bl[0] bl_n[0] bl[1] bl_n[1] bl[2] bl_n[2] bl[3] bl_n[3] bl[4] bl_n[4] bl[5] bl_n[5] bl[6] bl_n[6] bl[7] bl_n[7]
Xinst0x0 vss vdd wl[0] wl[1] wl[2] wl[3] wl[4] wl[5] wl[6] wl[7] bl[0] bl_n[0] bl[1] bl_n[1] bl[2] bl_n[2] bl[3] bl_n[3] SP6TVar0Array_8X4
Xinst0x1 vss vdd wl[0] wl[1] wl[2] wl[3] wl[4] wl[5] wl[6] wl[7] bl[4] bl_n[4] bl[5] bl_n[5] bl[6] bl_n[6] bl[7] bl_n[7] SP6TVar0Array_8X4
.ends SP6TVar0Array_8X8

.subckt SP6TVar0BulkConn vdd vss bl bl_n
.ends SP6TVar0BulkConn

.subckt SP6TVar0BulkConnRow_2 vss vdd bl[0] bl_n[0] bl[1] bl_n[1]
Xinst0 vdd vss bl[0] bl_n[0] SP6TVar0BulkConn
Xinst1 vdd vss bl[1] bl_n[1] SP6TVar0BulkConn
.ends SP6TVar0BulkConnRow_2

.subckt SP6TVar0BulkConnRow_4 vss vdd bl[0] bl_n[0] bl[1] bl_n[1] bl[2] bl_n[2] bl[3] bl_n[3]
Xinst0 vss vdd bl[0] bl_n[0] bl[1] bl_n[1] SP6TVar0BulkConnRow_2
Xinst1 vss vdd bl[2] bl_n[2] bl[3] bl_n[3] SP6TVar0BulkConnRow_2
.ends SP6TVar0BulkConnRow_4

.subckt SP6TVar0BulkConnRow_8 vss vdd bl[0] bl_n[0] bl[1] bl_n[1] bl[2] bl_n[2] bl[3] bl_n[3] bl[4] bl_n[4] bl[5] bl_n[5] bl[6] bl_n[6] bl[7] bl_n[7]
Xinst0 vss vdd bl[0] bl_n[0] bl[1] bl_n[1] bl[2] bl_n[2] bl[3] bl_n[3] SP6TVar0BulkConnRow_4
Xinst1 vss vdd bl[4] bl_n[4] bl[5] bl_n[5] bl[6] bl_n[6] bl[7] bl_n[7] SP6TVar0BulkConnRow_4
.ends SP6TVar0BulkConnRow_8

.subckt SP6TVar0Array_16X8BC vss vdd wl[0] wl[1] wl[2] wl[3] wl[4] wl[5] wl[6] wl[7] wl[8] wl[9] wl[10] wl[11] wl[12] wl[13] wl[14] wl[15] bl[0] bl_n[0] bl[1] bl_n[1] bl[2] bl_n[2] bl[3] bl_n[3] bl[4] bl_n[4] bl[5] bl_n[5] bl[6] bl_n[6] bl[7] bl_n[7]
Xinst0x0 vss vdd wl[0] wl[1] wl[2] wl[3] wl[4] wl[5] wl[6] wl[7] bl[0] bl_n[0] bl[1] bl_n[1] bl[2] bl_n[2] bl[3] bl_n[3] bl[4] bl_n[4] bl[5] bl_n[5] bl[6] bl_n[6] bl[7] bl_n[7] SP6TVar0Array_8X8
Xinst1x0 vss vdd wl[8] wl[9] wl[10] wl[11] wl[12] wl[13] wl[14] wl[15] bl[0] bl_n[0] bl[1] bl_n[1] bl[2] bl_n[2] bl[3] bl_n[3] bl[4] bl_n[4] bl[5] bl_n[5] bl[6] bl_n[6] bl[7] bl_n[7] SP6TVar0Array_8X8
Xbottombcrow vss vdd bl[0] bl_n[0] bl[1] bl_n[1] bl[2] bl_n[2] bl[3] bl_n[3] bl[4] bl_n[4] bl[5] bl_n[5] bl[6] bl_n[6] bl[7] bl_n[7] SP6TVar0BulkConnRow_8
Xtopbcrow vss vdd bl[0] bl_n[0] bl[1] bl_n[1] bl[2] bl_n[2] bl[3] bl_n[3] bl[4] bl_n[4] bl[5] bl_n[5] bl[6] bl_n[6] bl[7] bl_n[7] SP6TVar0BulkConnRow_8
.ends SP6TVar0Array_16X8BC

.subckt zero_x1 vdd vss zero
Xnpass vss one zero vss sg13_lv_nmos l=1.3e-07 w=1.51e-06
Xppass one zero vdd vdd sg13_lv_pmos l=1.3e-07 w=1.5e-06
.ends zero_x1

.subckt SP6TVar0TestArray_16X8 vss vdd bl bl_n wl
Xarray vss vdd zero zero zero zero zero zero zero zero wl zero zero zero zero zero zero zero bl[0] bl_n[0] bl[1] bl_n[1] bl[2] bl_n[2] bl[3] bl_n[3] bl bl_n bl[5] bl_n[5] bl[6] bl_n[6] bl[7] bl_n[7] SP6TVar0Array_16X8BC
Xzero vdd vss zero zero_x1
.ends SP6TVar0TestArray_16X8

.subckt SP6TVar0Array_4X1 vss vdd wl[0] wl[1] wl[2] wl[3] bl[0] bl_n[0]
Xinst0x0 vss vdd wl[0] wl[1] bl[0] bl_n[0] SP6TVar0Array_2X1
Xinst1x0 vss vdd wl[2] wl[3] bl[0] bl_n[0] SP6TVar0Array_2X1
.ends SP6TVar0Array_4X1

.subckt SP6TVar0Array_8X1 vss vdd wl[0] wl[1] wl[2] wl[3] wl[4] wl[5] wl[6] wl[7] bl[0] bl_n[0]
Xinst0x0 vss vdd wl[0] wl[1] wl[2] wl[3] bl[0] bl_n[0] SP6TVar0Array_4X1
Xinst1x0 vss vdd wl[4] wl[5] wl[6] wl[7] bl[0] bl_n[0] SP6TVar0Array_4X1
.ends SP6TVar0Array_8X1

.subckt SP6TVar0Array_16X1BC vss vdd wl[0] wl[1] wl[2] wl[3] wl[4] wl[5] wl[6] wl[7] wl[8] wl[9] wl[10] wl[11] wl[12] wl[13] wl[14] wl[15] bl[0] bl_n[0]
Xinst0x0 vss vdd wl[0] wl[1] wl[2] wl[3] wl[4] wl[5] wl[6] wl[7] bl[0] bl_n[0] SP6TVar0Array_8X1
Xinst1x0 vss vdd wl[8] wl[9] wl[10] wl[11] wl[12] wl[13] wl[14] wl[15] bl[0] bl_n[0] SP6TVar0Array_8X1
Xbottombcrow vdd vss bl[0] bl_n[0] SP6TVar0BulkConn
Xtopbcrow vdd vss bl[0] bl_n[0] SP6TVar0BulkConn
.ends SP6TVar0Array_16X1BC

.subckt SP6TVar0Array_8X2 vss vdd wl[0] wl[1] wl[2] wl[3] wl[4] wl[5] wl[6] wl[7] bl[0] bl_n[0] bl[1] bl_n[1]
Xinst0x0 vss vdd wl[0] wl[1] wl[2] wl[3] bl[0] bl_n[0] bl[1] bl_n[1] SP6TVar0Array_4X2
Xinst1x0 vss vdd wl[4] wl[5] wl[6] wl[7] bl[0] bl_n[0] bl[1] bl_n[1] SP6TVar0Array_4X2
.ends SP6TVar0Array_8X2

.subckt SP6TVar0Array_16X2BC vss vdd wl[0] wl[1] wl[2] wl[3] wl[4] wl[5] wl[6] wl[7] wl[8] wl[9] wl[10] wl[11] wl[12] wl[13] wl[14] wl[15] bl[0] bl_n[0] bl[1] bl_n[1]
Xinst0x0 vss vdd wl[0] wl[1] wl[2] wl[3] wl[4] wl[5] wl[6] wl[7] bl[0] bl_n[0] bl[1] bl_n[1] SP6TVar0Array_8X2
Xinst1x0 vss vdd wl[8] wl[9] wl[10] wl[11] wl[12] wl[13] wl[14] wl[15] bl[0] bl_n[0] bl[1] bl_n[1] SP6TVar0Array_8X2
Xbottombcrow vss vdd bl[0] bl_n[0] bl[1] bl_n[1] SP6TVar0BulkConnRow_2
Xtopbcrow vss vdd bl[0] bl_n[0] bl[1] bl_n[1] SP6TVar0BulkConnRow_2
.ends SP6TVar0Array_16X2BC

.subckt SP6TVar0Array_16X4BC vss vdd wl[0] wl[1] wl[2] wl[3] wl[4] wl[5] wl[6] wl[7] wl[8] wl[9] wl[10] wl[11] wl[12] wl[13] wl[14] wl[15] bl[0] bl_n[0] bl[1] bl_n[1] bl[2] bl_n[2] bl[3] bl_n[3]
Xinst0x0 vss vdd wl[0] wl[1] wl[2] wl[3] wl[4] wl[5] wl[6] wl[7] bl[0] bl_n[0] bl[1] bl_n[1] bl[2] bl_n[2] bl[3] bl_n[3] SP6TVar0Array_8X4
Xinst1x0 vss vdd wl[8] wl[9] wl[10] wl[11] wl[12] wl[13] wl[14] wl[15] bl[0] bl_n[0] bl[1] bl_n[1] bl[2] bl_n[2] bl[3] bl_n[3] SP6TVar0Array_8X4
Xbottombcrow vss vdd bl[0] bl_n[0] bl[1] bl_n[1] bl[2] bl_n[2] bl[3] bl_n[3] SP6TVar0BulkConnRow_4
Xtopbcrow vss vdd bl[0] bl_n[0] bl[1] bl_n[1] bl[2] bl_n[2] bl[3] bl_n[3] SP6TVar0BulkConnRow_4
.ends SP6TVar0Array_16X4BC

.subckt SP6TVar0Array_6X1 vss vdd wl[0] wl[1] wl[2] wl[3] wl[4] wl[5] bl[0] bl_n[0]
Xinst0x0 vss vdd wl[0] wl[1] wl[2] wl[3] bl[0] bl_n[0] SP6TVar0Array_4X1
Xinst1x0 vss vdd wl[4] wl[5] bl[0] bl_n[0] SP6TVar0Array_2X1
.ends SP6TVar0Array_6X1

.subckt SP6TVar0CellConnectOut wl bl bl_n vdd vss bit bit_n
Xpu1 vdd bit_n bit vdd sg13_lv_pmos l=1.3e-07 w=3e-07
Xpd1 bit bit_n vss vss sg13_lv_nmos l=1.3e-07 w=3e-07
Xpu2 vdd bit bit_n vdd sg13_lv_pmos l=1.3e-07 w=3e-07
Xpd2 bit_n bit vss vss sg13_lv_nmos l=1.3e-07 w=3e-07
Xpg1 bit wl bl vss sg13_lv_nmos l=1.3e-07 w=3e-07
Xpg2 bit_n wl bl_n vss sg13_lv_nmos l=1.3e-07 w=3e-07
.ends SP6TVar0CellConnectOut

.subckt SP6TVar0TestArray_16X8C vss vdd bl bl_n bit bit_n wl
Xarray_0 vss vdd zero zero zero zero zero zero zero zero wl zero zero zero zero zero zero zero array_0_bl[0] array_0_bl_n[0] SP6TVar0Array_16X1BC
Xarray_1 vss vdd zero zero zero zero zero zero zero zero wl zero zero zero zero zero zero zero array_1_bl[0] array_1_bl_n[0] array_1_bl[1] array_1_bl_n[1] SP6TVar0Array_16X2BC
Xarray_2 vss vdd zero zero zero zero zero zero zero zero wl zero zero zero zero zero zero zero array_2_bl[0] array_2_bl_n[0] array_2_bl[1] array_2_bl_n[1] array_2_bl[2] array_2_bl_n[2] array_2_bl[3] array_2_bl_n[3] SP6TVar0Array_16X4BC
Xcolbc_0 vdd vss bl bl_n SP6TVar0BulkConn
Xcolbc_1 vdd vss bl bl_n SP6TVar0BulkConn
Xcolarray_0 vss vdd zero zero zero zero zero zero zero zero bl bl_n SP6TVar0Array_8X1
Xcolarray_1 vss vdd zero zero zero zero zero zero bl bl_n SP6TVar0Array_6X1
Xbc_noconn zero bl bl_n vdd vss SP6TVar0Cell
Xbc_conn wl bl bl_n vdd vss bit bit_n SP6TVar0CellConnectOut
Xzero vdd vss zero zero_x1
.ends SP6TVar0TestArray_16X8C

.subckt PadFrame_SP00 PAD0x0 PAD0x1 PAD0x2 PAD0x3 PAD0x4 PAD0x5 PAD0x6 PAD0x7 PAD0x8 PAD0x9 PAD1x0 PAD1x1 PAD1x2 PAD1x3 PAD1x4 PAD1x5 PAD1x6 PAD1x7 PAD1x8 PAD1x9
XPAD0x0 PAD0x0 BondPad
XPAD0x1 PAD0x1 BondPad
XPAD0x2 PAD0x2 BondPad
XPAD0x3 PAD0x3 BondPad
XPAD0x4 PAD0x4 BondPad
XPAD0x5 PAD0x5 BondPad
XPAD0x6 PAD0x6 BondPad
XPAD0x7 PAD0x7 BondPad
XPAD0x8 PAD0x8 BondPad
XPAD0x9 PAD0x9 BondPad
XPAD1x0 PAD1x0 BondPad
XPAD1x1 PAD1x1 BondPad
XPAD1x2 PAD1x2 BondPad
XPAD1x3 PAD1x3 BondPad
XPAD1x4 PAD1x4 BondPad
XPAD1x5 PAD1x5 BondPad
XPAD1x6 PAD1x6 BondPad
XPAD1x7 PAD1x7 BondPad
XPAD1x8 PAD1x8 BondPad
XPAD1x9 PAD1x9 BondPad
.ends PadFrame_SP00

.subckt SP6TVar0 vss noco_vdd noco_wl noco_bl noco_bl_n co_vdd co_bl co_bl_n co_bit co_bit_n co_wl
Xframe noco_vdd noco_wl NoConn_PAD0x2 co_vdd co_bl_n co_bit co_bit_n NoConn_PAD0x7 NoConn_PAD0x8 NoConn_PAD0x9 vss noco_bl noco_bl_n vss co_bl co_wl NoConn_PAD1x6 NoConn_PAD1x7 NoConn_PAD1x8 NoConn_PAD1x9 PadFrame_SP00
Xtestarray_noco vss noco_vdd noco_bl noco_bl_n noco_wl SP6TVar0TestArray_16X8
Xtestarray_co vss co_vdd co_bl co_bl_n co_bit co_bit_n co_wl SP6TVar0TestArray_16X8C
.ends SP6TVar0

.subckt DP8TVar0Cell wl1 wl2 bl1 bl1_n bl2 bl2_n vdd vss
Xpu1 vdd bit_n bit vdd sg13_lv_pmos l=1.3e-07 w=3e-07
Xpd1 bit bit_n vss vss sg13_lv_nmos l=1.3e-07 w=3e-07
Xpu2 vdd bit bit_n vdd sg13_lv_pmos l=1.3e-07 w=3e-07
Xpd2 bit_n bit vss vss sg13_lv_nmos l=1.3e-07 w=3e-07
Xpg1 bit wl1 bl1 vss sg13_lv_nmos l=1.3e-07 w=3e-07
Xpg1n bit_n wl1 bl1_n vss sg13_lv_nmos l=1.3e-07 w=3e-07
Xpg2 bit wl2 bl2 vss sg13_lv_nmos l=1.3e-07 w=3e-07
Xpg2n bit_n wl2 bl2_n vss sg13_lv_nmos l=1.3e-07 w=3e-07
.ends DP8TVar0Cell

.subckt DP8TVar0Array_2X1 vss vdd wl1[0] wl2[0] wl1[1] wl2[1] bl1[0] bl1_n[0] bl2[0] bl2_n[0]
Xinst0x0 wl1[0] wl2[0] bl1[0] bl1_n[0] bl2[0] bl2_n[0] vdd vss DP8TVar0Cell
Xinst1x0 wl1[1] wl2[1] bl1[0] bl1_n[0] bl2[0] bl2_n[0] vdd vss DP8TVar0Cell
.ends DP8TVar0Array_2X1

.subckt DP8TVar0Array_2X2 vss vdd wl1[0] wl2[0] wl1[1] wl2[1] bl1[0] bl1_n[0] bl2[0] bl2_n[0] bl1[1] bl1_n[1] bl2[1] bl2_n[1]
Xinst0x0 vss vdd wl1[0] wl2[0] wl1[1] wl2[1] bl1[0] bl1_n[0] bl2[0] bl2_n[0] DP8TVar0Array_2X1
Xinst0x1 vss vdd wl1[0] wl2[0] wl1[1] wl2[1] bl1[1] bl1_n[1] bl2[1] bl2_n[1] DP8TVar0Array_2X1
.ends DP8TVar0Array_2X2

.subckt DP8TVar0Array_4X2 vss vdd wl1[0] wl2[0] wl1[1] wl2[1] wl1[2] wl2[2] wl1[3] wl2[3] bl1[0] bl1_n[0] bl2[0] bl2_n[0] bl1[1] bl1_n[1] bl2[1] bl2_n[1]
Xinst0x0 vss vdd wl1[0] wl2[0] wl1[1] wl2[1] bl1[0] bl1_n[0] bl2[0] bl2_n[0] bl1[1] bl1_n[1] bl2[1] bl2_n[1] DP8TVar0Array_2X2
Xinst1x0 vss vdd wl1[2] wl2[2] wl1[3] wl2[3] bl1[0] bl1_n[0] bl2[0] bl2_n[0] bl1[1] bl1_n[1] bl2[1] bl2_n[1] DP8TVar0Array_2X2
.ends DP8TVar0Array_4X2

.subckt DP8TVar0Array_4X4 vss vdd wl1[0] wl2[0] wl1[1] wl2[1] wl1[2] wl2[2] wl1[3] wl2[3] bl1[0] bl1_n[0] bl2[0] bl2_n[0] bl1[1] bl1_n[1] bl2[1] bl2_n[1] bl1[2] bl1_n[2] bl2[2] bl2_n[2] bl1[3] bl1_n[3] bl2[3] bl2_n[3]
Xinst0x0 vss vdd wl1[0] wl2[0] wl1[1] wl2[1] wl1[2] wl2[2] wl1[3] wl2[3] bl1[0] bl1_n[0] bl2[0] bl2_n[0] bl1[1] bl1_n[1] bl2[1] bl2_n[1] DP8TVar0Array_4X2
Xinst0x1 vss vdd wl1[0] wl2[0] wl1[1] wl2[1] wl1[2] wl2[2] wl1[3] wl2[3] bl1[2] bl1_n[2] bl2[2] bl2_n[2] bl1[3] bl1_n[3] bl2[3] bl2_n[3] DP8TVar0Array_4X2
.ends DP8TVar0Array_4X4

.subckt DP8TVar0Array_8X4 vss vdd wl1[0] wl2[0] wl1[1] wl2[1] wl1[2] wl2[2] wl1[3] wl2[3] wl1[4] wl2[4] wl1[5] wl2[5] wl1[6] wl2[6] wl1[7] wl2[7] bl1[0] bl1_n[0] bl2[0] bl2_n[0] bl1[1] bl1_n[1] bl2[1] bl2_n[1] bl1[2] bl1_n[2] bl2[2] bl2_n[2] bl1[3] bl1_n[3] bl2[3] bl2_n[3]
Xinst0x0 vss vdd wl1[0] wl2[0] wl1[1] wl2[1] wl1[2] wl2[2] wl1[3] wl2[3] bl1[0] bl1_n[0] bl2[0] bl2_n[0] bl1[1] bl1_n[1] bl2[1] bl2_n[1] bl1[2] bl1_n[2] bl2[2] bl2_n[2] bl1[3] bl1_n[3] bl2[3] bl2_n[3] DP8TVar0Array_4X4
Xinst1x0 vss vdd wl1[4] wl2[4] wl1[5] wl2[5] wl1[6] wl2[6] wl1[7] wl2[7] bl1[0] bl1_n[0] bl2[0] bl2_n[0] bl1[1] bl1_n[1] bl2[1] bl2_n[1] bl1[2] bl1_n[2] bl2[2] bl2_n[2] bl1[3] bl1_n[3] bl2[3] bl2_n[3] DP8TVar0Array_4X4
.ends DP8TVar0Array_8X4

.subckt DP8TVar0Array_8X8 vss vdd wl1[0] wl2[0] wl1[1] wl2[1] wl1[2] wl2[2] wl1[3] wl2[3] wl1[4] wl2[4] wl1[5] wl2[5] wl1[6] wl2[6] wl1[7] wl2[7] bl1[0] bl1_n[0] bl2[0] bl2_n[0] bl1[1] bl1_n[1] bl2[1] bl2_n[1] bl1[2] bl1_n[2] bl2[2] bl2_n[2] bl1[3] bl1_n[3] bl2[3] bl2_n[3] bl1[4] bl1_n[4] bl2[4] bl2_n[4] bl1[5] bl1_n[5] bl2[5] bl2_n[5] bl1[6] bl1_n[6] bl2[6] bl2_n[6] bl1[7] bl1_n[7] bl2[7] bl2_n[7]
Xinst0x0 vss vdd wl1[0] wl2[0] wl1[1] wl2[1] wl1[2] wl2[2] wl1[3] wl2[3] wl1[4] wl2[4] wl1[5] wl2[5] wl1[6] wl2[6] wl1[7] wl2[7] bl1[0] bl1_n[0] bl2[0] bl2_n[0] bl1[1] bl1_n[1] bl2[1] bl2_n[1] bl1[2] bl1_n[2] bl2[2] bl2_n[2] bl1[3] bl1_n[3] bl2[3] bl2_n[3] DP8TVar0Array_8X4
Xinst0x1 vss vdd wl1[0] wl2[0] wl1[1] wl2[1] wl1[2] wl2[2] wl1[3] wl2[3] wl1[4] wl2[4] wl1[5] wl2[5] wl1[6] wl2[6] wl1[7] wl2[7] bl1[4] bl1_n[4] bl2[4] bl2_n[4] bl1[5] bl1_n[5] bl2[5] bl2_n[5] bl1[6] bl1_n[6] bl2[6] bl2_n[6] bl1[7] bl1_n[7] bl2[7] bl2_n[7] DP8TVar0Array_8X4
.ends DP8TVar0Array_8X8

.subckt DP8TVar0BulkConn vdd vss bl1 bl2 bl1_n bl2_n
.ends DP8TVar0BulkConn

.subckt DP8TVar0BulkConnRow_2 vss vdd bl1[0] bl1_n[0] bl2[0] bl2_n[0] bl1[1] bl1_n[1] bl2[1] bl2_n[1]
Xinst0 vdd vss bl1[0] bl2[0] bl1_n[0] bl2_n[0] DP8TVar0BulkConn
Xinst1 vdd vss bl1[1] bl2[1] bl1_n[1] bl2_n[1] DP8TVar0BulkConn
.ends DP8TVar0BulkConnRow_2

.subckt DP8TVar0BulkConnRow_4 vss vdd bl1[0] bl1_n[0] bl2[0] bl2_n[0] bl1[1] bl1_n[1] bl2[1] bl2_n[1] bl1[2] bl1_n[2] bl2[2] bl2_n[2] bl1[3] bl1_n[3] bl2[3] bl2_n[3]
Xinst0 vss vdd bl1[0] bl1_n[0] bl2[0] bl2_n[0] bl1[1] bl1_n[1] bl2[1] bl2_n[1] DP8TVar0BulkConnRow_2
Xinst1 vss vdd bl1[2] bl1_n[2] bl2[2] bl2_n[2] bl1[3] bl1_n[3] bl2[3] bl2_n[3] DP8TVar0BulkConnRow_2
.ends DP8TVar0BulkConnRow_4

.subckt DP8TVar0BulkConnRow_8 vss vdd bl1[0] bl1_n[0] bl2[0] bl2_n[0] bl1[1] bl1_n[1] bl2[1] bl2_n[1] bl1[2] bl1_n[2] bl2[2] bl2_n[2] bl1[3] bl1_n[3] bl2[3] bl2_n[3] bl1[4] bl1_n[4] bl2[4] bl2_n[4] bl1[5] bl1_n[5] bl2[5] bl2_n[5] bl1[6] bl1_n[6] bl2[6] bl2_n[6] bl1[7] bl1_n[7] bl2[7] bl2_n[7]
Xinst0 vss vdd bl1[0] bl1_n[0] bl2[0] bl2_n[0] bl1[1] bl1_n[1] bl2[1] bl2_n[1] bl1[2] bl1_n[2] bl2[2] bl2_n[2] bl1[3] bl1_n[3] bl2[3] bl2_n[3] DP8TVar0BulkConnRow_4
Xinst1 vss vdd bl1[4] bl1_n[4] bl2[4] bl2_n[4] bl1[5] bl1_n[5] bl2[5] bl2_n[5] bl1[6] bl1_n[6] bl2[6] bl2_n[6] bl1[7] bl1_n[7] bl2[7] bl2_n[7] DP8TVar0BulkConnRow_4
.ends DP8TVar0BulkConnRow_8

.subckt DP8TVar0Array_16X8BC vss vdd wl1[0] wl2[0] wl1[1] wl2[1] wl1[2] wl2[2] wl1[3] wl2[3] wl1[4] wl2[4] wl1[5] wl2[5] wl1[6] wl2[6] wl1[7] wl2[7] wl1[8] wl2[8] wl1[9] wl2[9] wl1[10] wl2[10] wl1[11] wl2[11] wl1[12] wl2[12] wl1[13] wl2[13] wl1[14] wl2[14] wl1[15] wl2[15] bl1[0] bl1_n[0] bl2[0] bl2_n[0] bl1[1] bl1_n[1] bl2[1] bl2_n[1] bl1[2] bl1_n[2] bl2[2] bl2_n[2] bl1[3] bl1_n[3] bl2[3] bl2_n[3] bl1[4] bl1_n[4] bl2[4] bl2_n[4] bl1[5] bl1_n[5] bl2[5] bl2_n[5] bl1[6] bl1_n[6] bl2[6] bl2_n[6] bl1[7] bl1_n[7] bl2[7] bl2_n[7]
Xinst0x0 vss vdd wl1[0] wl2[0] wl1[1] wl2[1] wl1[2] wl2[2] wl1[3] wl2[3] wl1[4] wl2[4] wl1[5] wl2[5] wl1[6] wl2[6] wl1[7] wl2[7] bl1[0] bl1_n[0] bl2[0] bl2_n[0] bl1[1] bl1_n[1] bl2[1] bl2_n[1] bl1[2] bl1_n[2] bl2[2] bl2_n[2] bl1[3] bl1_n[3] bl2[3] bl2_n[3] bl1[4] bl1_n[4] bl2[4] bl2_n[4] bl1[5] bl1_n[5] bl2[5] bl2_n[5] bl1[6] bl1_n[6] bl2[6] bl2_n[6] bl1[7] bl1_n[7] bl2[7] bl2_n[7] DP8TVar0Array_8X8
Xinst1x0 vss vdd wl1[8] wl2[8] wl1[9] wl2[9] wl1[10] wl2[10] wl1[11] wl2[11] wl1[12] wl2[12] wl1[13] wl2[13] wl1[14] wl2[14] wl1[15] wl2[15] bl1[0] bl1_n[0] bl2[0] bl2_n[0] bl1[1] bl1_n[1] bl2[1] bl2_n[1] bl1[2] bl1_n[2] bl2[2] bl2_n[2] bl1[3] bl1_n[3] bl2[3] bl2_n[3] bl1[4] bl1_n[4] bl2[4] bl2_n[4] bl1[5] bl1_n[5] bl2[5] bl2_n[5] bl1[6] bl1_n[6] bl2[6] bl2_n[6] bl1[7] bl1_n[7] bl2[7] bl2_n[7] DP8TVar0Array_8X8
Xbottombcrow vss vdd bl1[0] bl1_n[0] bl2[0] bl2_n[0] bl1[1] bl1_n[1] bl2[1] bl2_n[1] bl1[2] bl1_n[2] bl2[2] bl2_n[2] bl1[3] bl1_n[3] bl2[3] bl2_n[3] bl1[4] bl1_n[4] bl2[4] bl2_n[4] bl1[5] bl1_n[5] bl2[5] bl2_n[5] bl1[6] bl1_n[6] bl2[6] bl2_n[6] bl1[7] bl1_n[7] bl2[7] bl2_n[7] DP8TVar0BulkConnRow_8
Xtopbcrow vss vdd bl1[0] bl1_n[0] bl2[0] bl2_n[0] bl1[1] bl1_n[1] bl2[1] bl2_n[1] bl1[2] bl1_n[2] bl2[2] bl2_n[2] bl1[3] bl1_n[3] bl2[3] bl2_n[3] bl1[4] bl1_n[4] bl2[4] bl2_n[4] bl1[5] bl1_n[5] bl2[5] bl2_n[5] bl1[6] bl1_n[6] bl2[6] bl2_n[6] bl1[7] bl1_n[7] bl2[7] bl2_n[7] DP8TVar0BulkConnRow_8
.ends DP8TVar0Array_16X8BC

.subckt DP8TVar0TestArray_16X8 vss vdd wl1 wl2 bl1 bl1_n bl2 bl2_n
Xarray vss vdd zero zero zero zero zero zero zero zero zero zero zero zero zero zero zero zero wl1 wl2 zero zero zero zero zero zero zero zero zero zero zero zero zero zero bl1[0] bl1_n[0] bl2[0] bl2_n[0] bl1[1] bl1_n[1] bl2[1] bl2_n[1] bl1[2] bl1_n[2] bl2[2] bl2_n[2] bl1[3] bl1_n[3] bl2[3] bl2_n[3] bl1 bl1_n bl2 bl2_n bl1[5] bl1_n[5] bl2[5] bl2_n[5] bl1[6] bl1_n[6] bl2[6] bl2_n[6] bl1[7] bl1_n[7] bl2[7] bl2_n[7] DP8TVar0Array_16X8BC
Xzero vdd vss zero zero_x1
.ends DP8TVar0TestArray_16X8

.subckt DP8TVar0Array_4X8 vss vdd wl1[0] wl2[0] wl1[1] wl2[1] wl1[2] wl2[2] wl1[3] wl2[3] bl1[0] bl1_n[0] bl2[0] bl2_n[0] bl1[1] bl1_n[1] bl2[1] bl2_n[1] bl1[2] bl1_n[2] bl2[2] bl2_n[2] bl1[3] bl1_n[3] bl2[3] bl2_n[3] bl1[4] bl1_n[4] bl2[4] bl2_n[4] bl1[5] bl1_n[5] bl2[5] bl2_n[5] bl1[6] bl1_n[6] bl2[6] bl2_n[6] bl1[7] bl1_n[7] bl2[7] bl2_n[7]
Xinst0x0 vss vdd wl1[0] wl2[0] wl1[1] wl2[1] wl1[2] wl2[2] wl1[3] wl2[3] bl1[0] bl1_n[0] bl2[0] bl2_n[0] bl1[1] bl1_n[1] bl2[1] bl2_n[1] bl1[2] bl1_n[2] bl2[2] bl2_n[2] bl1[3] bl1_n[3] bl2[3] bl2_n[3] DP8TVar0Array_4X4
Xinst0x1 vss vdd wl1[0] wl2[0] wl1[1] wl2[1] wl1[2] wl2[2] wl1[3] wl2[3] bl1[4] bl1_n[4] bl2[4] bl2_n[4] bl1[5] bl1_n[5] bl2[5] bl2_n[5] bl1[6] bl1_n[6] bl2[6] bl2_n[6] bl1[7] bl1_n[7] bl2[7] bl2_n[7] DP8TVar0Array_4X4
.ends DP8TVar0Array_4X8

.subckt DP8TVar0Array_2X4 vss vdd wl1[0] wl2[0] wl1[1] wl2[1] bl1[0] bl1_n[0] bl2[0] bl2_n[0] bl1[1] bl1_n[1] bl2[1] bl2_n[1] bl1[2] bl1_n[2] bl2[2] bl2_n[2] bl1[3] bl1_n[3] bl2[3] bl2_n[3]
Xinst0x0 vss vdd wl1[0] wl2[0] wl1[1] wl2[1] bl1[0] bl1_n[0] bl2[0] bl2_n[0] bl1[1] bl1_n[1] bl2[1] bl2_n[1] DP8TVar0Array_2X2
Xinst0x1 vss vdd wl1[0] wl2[0] wl1[1] wl2[1] bl1[2] bl1_n[2] bl2[2] bl2_n[2] bl1[3] bl1_n[3] bl2[3] bl2_n[3] DP8TVar0Array_2X2
.ends DP8TVar0Array_2X4

.subckt DP8TVar0Array_2X8 vss vdd wl1[0] wl2[0] wl1[1] wl2[1] bl1[0] bl1_n[0] bl2[0] bl2_n[0] bl1[1] bl1_n[1] bl2[1] bl2_n[1] bl1[2] bl1_n[2] bl2[2] bl2_n[2] bl1[3] bl1_n[3] bl2[3] bl2_n[3] bl1[4] bl1_n[4] bl2[4] bl2_n[4] bl1[5] bl1_n[5] bl2[5] bl2_n[5] bl1[6] bl1_n[6] bl2[6] bl2_n[6] bl1[7] bl1_n[7] bl2[7] bl2_n[7]
Xinst0x0 vss vdd wl1[0] wl2[0] wl1[1] wl2[1] bl1[0] bl1_n[0] bl2[0] bl2_n[0] bl1[1] bl1_n[1] bl2[1] bl2_n[1] bl1[2] bl1_n[2] bl2[2] bl2_n[2] bl1[3] bl1_n[3] bl2[3] bl2_n[3] DP8TVar0Array_2X4
Xinst0x1 vss vdd wl1[0] wl2[0] wl1[1] wl2[1] bl1[4] bl1_n[4] bl2[4] bl2_n[4] bl1[5] bl1_n[5] bl2[5] bl2_n[5] bl1[6] bl1_n[6] bl2[6] bl2_n[6] bl1[7] bl1_n[7] bl2[7] bl2_n[7] DP8TVar0Array_2X4
.ends DP8TVar0Array_2X8

.subckt DP8TVar0Array_1X2 vss vdd wl1[0] wl2[0] bl1[0] bl1_n[0] bl2[0] bl2_n[0] bl1[1] bl1_n[1] bl2[1] bl2_n[1]
Xinst0x0 wl1[0] wl2[0] bl1[0] bl1_n[0] bl2[0] bl2_n[0] vdd vss DP8TVar0Cell
Xinst0x1 wl1[0] wl2[0] bl1[1] bl1_n[1] bl2[1] bl2_n[1] vdd vss DP8TVar0Cell
.ends DP8TVar0Array_1X2

.subckt DP8TVar0Array_1X4 vss vdd wl1[0] wl2[0] bl1[0] bl1_n[0] bl2[0] bl2_n[0] bl1[1] bl1_n[1] bl2[1] bl2_n[1] bl1[2] bl1_n[2] bl2[2] bl2_n[2] bl1[3] bl1_n[3] bl2[3] bl2_n[3]
Xinst0x0 vss vdd wl1[0] wl2[0] bl1[0] bl1_n[0] bl2[0] bl2_n[0] bl1[1] bl1_n[1] bl2[1] bl2_n[1] DP8TVar0Array_1X2
Xinst0x1 vss vdd wl1[0] wl2[0] bl1[2] bl1_n[2] bl2[2] bl2_n[2] bl1[3] bl1_n[3] bl2[3] bl2_n[3] DP8TVar0Array_1X2
.ends DP8TVar0Array_1X4

.subckt DP8TVar0Array_1X8 vss vdd wl1[0] wl2[0] bl1[0] bl1_n[0] bl2[0] bl2_n[0] bl1[1] bl1_n[1] bl2[1] bl2_n[1] bl1[2] bl1_n[2] bl2[2] bl2_n[2] bl1[3] bl1_n[3] bl2[3] bl2_n[3] bl1[4] bl1_n[4] bl2[4] bl2_n[4] bl1[5] bl1_n[5] bl2[5] bl2_n[5] bl1[6] bl1_n[6] bl2[6] bl2_n[6] bl1[7] bl1_n[7] bl2[7] bl2_n[7]
Xinst0x0 vss vdd wl1[0] wl2[0] bl1[0] bl1_n[0] bl2[0] bl2_n[0] bl1[1] bl1_n[1] bl2[1] bl2_n[1] bl1[2] bl1_n[2] bl2[2] bl2_n[2] bl1[3] bl1_n[3] bl2[3] bl2_n[3] DP8TVar0Array_1X4
Xinst0x1 vss vdd wl1[0] wl2[0] bl1[4] bl1_n[4] bl2[4] bl2_n[4] bl1[5] bl1_n[5] bl2[5] bl2_n[5] bl1[6] bl1_n[6] bl2[6] bl2_n[6] bl1[7] bl1_n[7] bl2[7] bl2_n[7] DP8TVar0Array_1X4
.ends DP8TVar0Array_1X8

.subckt DP8TVar0Array_7X8 vss vdd wl1[0] wl2[0] wl1[1] wl2[1] wl1[2] wl2[2] wl1[3] wl2[3] wl1[4] wl2[4] wl1[5] wl2[5] wl1[6] wl2[6] bl1[0] bl1_n[0] bl2[0] bl2_n[0] bl1[1] bl1_n[1] bl2[1] bl2_n[1] bl1[2] bl1_n[2] bl2[2] bl2_n[2] bl1[3] bl1_n[3] bl2[3] bl2_n[3] bl1[4] bl1_n[4] bl2[4] bl2_n[4] bl1[5] bl1_n[5] bl2[5] bl2_n[5] bl1[6] bl1_n[6] bl2[6] bl2_n[6] bl1[7] bl1_n[7] bl2[7] bl2_n[7]
Xinst0x0 vss vdd wl1[0] wl2[0] wl1[1] wl2[1] wl1[2] wl2[2] wl1[3] wl2[3] bl1[0] bl1_n[0] bl2[0] bl2_n[0] bl1[1] bl1_n[1] bl2[1] bl2_n[1] bl1[2] bl1_n[2] bl2[2] bl2_n[2] bl1[3] bl1_n[3] bl2[3] bl2_n[3] bl1[4] bl1_n[4] bl2[4] bl2_n[4] bl1[5] bl1_n[5] bl2[5] bl2_n[5] bl1[6] bl1_n[6] bl2[6] bl2_n[6] bl1[7] bl1_n[7] bl2[7] bl2_n[7] DP8TVar0Array_4X8
Xinst1x0 vss vdd wl1[4] wl2[4] wl1[5] wl2[5] bl1[0] bl1_n[0] bl2[0] bl2_n[0] bl1[1] bl1_n[1] bl2[1] bl2_n[1] bl1[2] bl1_n[2] bl2[2] bl2_n[2] bl1[3] bl1_n[3] bl2[3] bl2_n[3] bl1[4] bl1_n[4] bl2[4] bl2_n[4] bl1[5] bl1_n[5] bl2[5] bl2_n[5] bl1[6] bl1_n[6] bl2[6] bl2_n[6] bl1[7] bl1_n[7] bl2[7] bl2_n[7] DP8TVar0Array_2X8
Xinst2x0 vss vdd wl1[6] wl2[6] bl1[0] bl1_n[0] bl2[0] bl2_n[0] bl1[1] bl1_n[1] bl2[1] bl2_n[1] bl1[2] bl1_n[2] bl2[2] bl2_n[2] bl1[3] bl1_n[3] bl2[3] bl2_n[3] bl1[4] bl1_n[4] bl2[4] bl2_n[4] bl1[5] bl1_n[5] bl2[5] bl2_n[5] bl1[6] bl1_n[6] bl2[6] bl2_n[6] bl1[7] bl1_n[7] bl2[7] bl2_n[7] DP8TVar0Array_1X8
.ends DP8TVar0Array_7X8

.subckt DP8TVar0CellShWL1 wl1 wl2 bl1 bl1_n bl2 bl2_n vdd vss
Xpu1 vdd bit_n bit vdd sg13_lv_pmos l=1.3e-07 w=3e-07
Xpd1 bit bit_n vss vss sg13_lv_nmos l=1.3e-07 w=3e-07
Xpu2 vdd bit bit_n vdd sg13_lv_pmos l=1.3e-07 w=3e-07
Xpd2 bit_n bit vss vss sg13_lv_nmos l=1.3e-07 w=3e-07
Xpg1 bit wl1 bl1 vss sg13_lv_nmos l=1.3e-07 w=3e-07
Xpg1n bit_n wl1 bl1_n vss sg13_lv_nmos l=1.3e-07 w=3e-07
Xpg2 bit wl1 bl2 vss sg13_lv_nmos l=1.3e-07 w=3e-07
Xpg2n bit_n wl1 bl2_n vss sg13_lv_nmos l=1.3e-07 w=3e-07
.ends DP8TVar0CellShWL1

.subckt DP8TVar0ArrayShWL1_1X2 vss vdd wl1[0] wl2[0] bl1[0] bl1_n[0] bl2[0] bl2_n[0] bl1[1] bl1_n[1] bl2[1] bl2_n[1]
Xinst0x0 wl1[0] wl2[0] bl1[0] bl1_n[0] bl2[0] bl2_n[0] vdd vss DP8TVar0CellShWL1
Xinst0x1 wl1[0] wl2[0] bl1[1] bl1_n[1] bl2[1] bl2_n[1] vdd vss DP8TVar0CellShWL1
.ends DP8TVar0ArrayShWL1_1X2

.subckt DP8TVar0ArrayShWL1_1X4 vss vdd wl1[0] wl2[0] bl1[0] bl1_n[0] bl2[0] bl2_n[0] bl1[1] bl1_n[1] bl2[1] bl2_n[1] bl1[2] bl1_n[2] bl2[2] bl2_n[2] bl1[3] bl1_n[3] bl2[3] bl2_n[3]
Xinst0x0 vss vdd wl1[0] wl2[0] bl1[0] bl1_n[0] bl2[0] bl2_n[0] bl1[1] bl1_n[1] bl2[1] bl2_n[1] DP8TVar0ArrayShWL1_1X2
Xinst0x1 vss vdd wl1[0] wl2[0] bl1[2] bl1_n[2] bl2[2] bl2_n[2] bl1[3] bl1_n[3] bl2[3] bl2_n[3] DP8TVar0ArrayShWL1_1X2
.ends DP8TVar0ArrayShWL1_1X4

.subckt DP8TVar0ArrayShWL1_1X8 vss vdd wl1[0] wl2[0] bl1[0] bl1_n[0] bl2[0] bl2_n[0] bl1[1] bl1_n[1] bl2[1] bl2_n[1] bl1[2] bl1_n[2] bl2[2] bl2_n[2] bl1[3] bl1_n[3] bl2[3] bl2_n[3] bl1[4] bl1_n[4] bl2[4] bl2_n[4] bl1[5] bl1_n[5] bl2[5] bl2_n[5] bl1[6] bl1_n[6] bl2[6] bl2_n[6] bl1[7] bl1_n[7] bl2[7] bl2_n[7]
Xinst0x0 vss vdd wl1[0] wl2[0] bl1[0] bl1_n[0] bl2[0] bl2_n[0] bl1[1] bl1_n[1] bl2[1] bl2_n[1] bl1[2] bl1_n[2] bl2[2] bl2_n[2] bl1[3] bl1_n[3] bl2[3] bl2_n[3] DP8TVar0ArrayShWL1_1X4
Xinst0x1 vss vdd wl1[0] wl2[0] bl1[4] bl1_n[4] bl2[4] bl2_n[4] bl1[5] bl1_n[5] bl2[5] bl2_n[5] bl1[6] bl1_n[6] bl2[6] bl2_n[6] bl1[7] bl1_n[7] bl2[7] bl2_n[7] DP8TVar0ArrayShWL1_1X4
.ends DP8TVar0ArrayShWL1_1X8

.subckt DP8TVar0CellConnectOut wl1 wl2 bl1 bl1_n bl2 bl2_n vdd vss bit bit_n
Xpu1 vdd bit_n bit vdd sg13_lv_pmos l=1.3e-07 w=3e-07
Xpd1 bit bit_n vss vss sg13_lv_nmos l=1.3e-07 w=3e-07
Xpu2 vdd bit bit_n vdd sg13_lv_pmos l=1.3e-07 w=3e-07
Xpd2 bit_n bit vss vss sg13_lv_nmos l=1.3e-07 w=3e-07
Xpg1 bit wl1 bl1 vss sg13_lv_nmos l=1.3e-07 w=3e-07
Xpg1n bit_n wl1 bl1_n vss sg13_lv_nmos l=1.3e-07 w=3e-07
Xpg2 bit wl2 bl2 vss sg13_lv_nmos l=1.3e-07 w=3e-07
Xpg2n bit_n wl2 bl2_n vss sg13_lv_nmos l=1.3e-07 w=3e-07
.ends DP8TVar0CellConnectOut

.subckt DP8TVar0CellShWL2 wl1 wl2 bl1 bl1_n bl2 bl2_n vdd vss
Xpu1 vdd bit_n bit vdd sg13_lv_pmos l=1.3e-07 w=3e-07
Xpd1 bit bit_n vss vss sg13_lv_nmos l=1.3e-07 w=3e-07
Xpu2 vdd bit bit_n vdd sg13_lv_pmos l=1.3e-07 w=3e-07
Xpd2 bit_n bit vss vss sg13_lv_nmos l=1.3e-07 w=3e-07
Xpg1 bit wl2 bl1 vss sg13_lv_nmos l=1.3e-07 w=3e-07
Xpg1n bit_n wl2 bl1_n vss sg13_lv_nmos l=1.3e-07 w=3e-07
Xpg2 bit wl2 bl2 vss sg13_lv_nmos l=1.3e-07 w=3e-07
Xpg2n bit_n wl2 bl2_n vss sg13_lv_nmos l=1.3e-07 w=3e-07
.ends DP8TVar0CellShWL2

.subckt DP8TVar0ArrayShWL2_1X2 vss vdd wl1[0] wl2[0] bl1[0] bl1_n[0] bl2[0] bl2_n[0] bl1[1] bl1_n[1] bl2[1] bl2_n[1]
Xinst0x0 wl1[0] wl2[0] bl1[0] bl1_n[0] bl2[0] bl2_n[0] vdd vss DP8TVar0CellShWL2
Xinst0x1 wl1[0] wl2[0] bl1[1] bl1_n[1] bl2[1] bl2_n[1] vdd vss DP8TVar0CellShWL2
.ends DP8TVar0ArrayShWL2_1X2

.subckt DP8TVar0ArrayShWL2_1X4 vss vdd wl1[0] wl2[0] bl1[0] bl1_n[0] bl2[0] bl2_n[0] bl1[1] bl1_n[1] bl2[1] bl2_n[1] bl1[2] bl1_n[2] bl2[2] bl2_n[2] bl1[3] bl1_n[3] bl2[3] bl2_n[3]
Xinst0x0 vss vdd wl1[0] wl2[0] bl1[0] bl1_n[0] bl2[0] bl2_n[0] bl1[1] bl1_n[1] bl2[1] bl2_n[1] DP8TVar0ArrayShWL2_1X2
Xinst0x1 vss vdd wl1[0] wl2[0] bl1[2] bl1_n[2] bl2[2] bl2_n[2] bl1[3] bl1_n[3] bl2[3] bl2_n[3] DP8TVar0ArrayShWL2_1X2
.ends DP8TVar0ArrayShWL2_1X4

.subckt DP8TVar0ArrayShWL2_1X8 vss vdd wl1[0] wl2[0] bl1[0] bl1_n[0] bl2[0] bl2_n[0] bl1[1] bl1_n[1] bl2[1] bl2_n[1] bl1[2] bl1_n[2] bl2[2] bl2_n[2] bl1[3] bl1_n[3] bl2[3] bl2_n[3] bl1[4] bl1_n[4] bl2[4] bl2_n[4] bl1[5] bl1_n[5] bl2[5] bl2_n[5] bl1[6] bl1_n[6] bl2[6] bl2_n[6] bl1[7] bl1_n[7] bl2[7] bl2_n[7]
Xinst0x0 vss vdd wl1[0] wl2[0] bl1[0] bl1_n[0] bl2[0] bl2_n[0] bl1[1] bl1_n[1] bl2[1] bl2_n[1] bl1[2] bl1_n[2] bl2[2] bl2_n[2] bl1[3] bl1_n[3] bl2[3] bl2_n[3] DP8TVar0ArrayShWL2_1X4
Xinst0x1 vss vdd wl1[0] wl2[0] bl1[4] bl1_n[4] bl2[4] bl2_n[4] bl1[5] bl1_n[5] bl2[5] bl2_n[5] bl1[6] bl1_n[6] bl2[6] bl2_n[6] bl1[7] bl1_n[7] bl2[7] bl2_n[7] DP8TVar0ArrayShWL2_1X4
.ends DP8TVar0ArrayShWL2_1X8

.subckt DP8TVar0Array_6X8 vss vdd wl1[0] wl2[0] wl1[1] wl2[1] wl1[2] wl2[2] wl1[3] wl2[3] wl1[4] wl2[4] wl1[5] wl2[5] bl1[0] bl1_n[0] bl2[0] bl2_n[0] bl1[1] bl1_n[1] bl2[1] bl2_n[1] bl1[2] bl1_n[2] bl2[2] bl2_n[2] bl1[3] bl1_n[3] bl2[3] bl2_n[3] bl1[4] bl1_n[4] bl2[4] bl2_n[4] bl1[5] bl1_n[5] bl2[5] bl2_n[5] bl1[6] bl1_n[6] bl2[6] bl2_n[6] bl1[7] bl1_n[7] bl2[7] bl2_n[7]
Xinst0x0 vss vdd wl1[0] wl2[0] wl1[1] wl2[1] wl1[2] wl2[2] wl1[3] wl2[3] bl1[0] bl1_n[0] bl2[0] bl2_n[0] bl1[1] bl1_n[1] bl2[1] bl2_n[1] bl1[2] bl1_n[2] bl2[2] bl2_n[2] bl1[3] bl1_n[3] bl2[3] bl2_n[3] bl1[4] bl1_n[4] bl2[4] bl2_n[4] bl1[5] bl1_n[5] bl2[5] bl2_n[5] bl1[6] bl1_n[6] bl2[6] bl2_n[6] bl1[7] bl1_n[7] bl2[7] bl2_n[7] DP8TVar0Array_4X8
Xinst1x0 vss vdd wl1[4] wl2[4] wl1[5] wl2[5] bl1[0] bl1_n[0] bl2[0] bl2_n[0] bl1[1] bl1_n[1] bl2[1] bl2_n[1] bl1[2] bl1_n[2] bl2[2] bl2_n[2] bl1[3] bl1_n[3] bl2[3] bl2_n[3] bl1[4] bl1_n[4] bl2[4] bl2_n[4] bl1[5] bl1_n[5] bl2[5] bl2_n[5] bl1[6] bl1_n[6] bl2[6] bl2_n[6] bl1[7] bl1_n[7] bl2[7] bl2_n[7] DP8TVar0Array_2X8
.ends DP8TVar0Array_6X8

.subckt DP8TVar0TestArray_16X8C vss vdd wl1 wl2 bl1 bl1_n bl2 bl2_n bit bit_n
Xbcconn_bot vss vdd bcconn_bot_bl1[0] bcconn_bot_bl1_n[0] bcconn_bot_bl2[0] bcconn_bot_bl2_n[0] bcconn_bot_bl1[1] bcconn_bot_bl1_n[1] bcconn_bot_bl2[1] bcconn_bot_bl2_n[1] bcconn_bot_bl1[2] bcconn_bot_bl1_n[2] bcconn_bot_bl2[2] bcconn_bot_bl2_n[2] bcconn_bot_bl1[3] bcconn_bot_bl1_n[3] bcconn_bot_bl2[3] bcconn_bot_bl2_n[3] bl1 bl1_n bl2 bl2_n bcconn_bot_bl1[5] bcconn_bot_bl1_n[5] bcconn_bot_bl2[5] bcconn_bot_bl2_n[5] bcconn_bot_bl1[6] bcconn_bot_bl1_n[6] bcconn_bot_bl2[6] bcconn_bot_bl2_n[6] bcconn_bot_bl1[7] bcconn_bot_bl1_n[7] bcconn_bot_bl2[7] bcconn_bot_bl2_n[7] DP8TVar0BulkConnRow_8