* Extracted by KLayout with SG13G2 LVS runset on : 22/11/2024 07:08

.SUBCKT top 15|25|VSS 24 8 10|A1|VINS_OL 11|A1|VINR_OL 12|S|VSEL_OL
+ 13|S|VSEL_DT 14|VINR_BUFF|X 7 6 16|PD_BUFF|X 2 9 5 17|NOC_N_BUFF|X 1 19|VDD A
+ A$1 A|Y A|Y$1 A|VINS|X A|VINR|X A|X A|X$1 A|X$2 VINS_BUFF|X A|X$3 A$2 A$3
+ A|B|Y A|X$4 A|B|Y$1 A|Y$2 A|X$5 A|X$6 A|Y$3 A|X$7 A|X$8 A|X$9 A|X$10 A|B|Y$2
+ A|X$11 A$4 4 A|X$12 A|Y$4 A|X$13 A|Y$5 A|Y$6 A|Y$7 A|B|Y$3 A|B|Y$4 A|Y$8
+ A|Y$9 X B|X A$5 A|Y$10 A|X$14 A|X$15 A|X$16 A|X$17 A|X$18 A|X$19 A|X$20
+ A|X$21 A|X$22 A|X$23 A|X$24 A$6 A|X$25 A|X$26 A|X$27 A|Y$11 A|X$28 A|X$29
+ A|Y$12 A|X$30 A|X$31 A|X$32 A|X$33 A|X$34 A|X$35 A|X$36 A|Y$13 A|B|X A|Y$14
+ A|Y$15 A|Y$16 A|X$37 A|X$38 A0|Y A|X$39 A|X$40 A|X$41 A|X$42 A|X$43 A0|X
+ A|X$44 A|X$45 A0|Y$1 A1|X A|X$46 A1|X$1 A|X$47 A0|X$1 27 28 18|NOC_P_BUFF|X
+ 23 20 NOC_P|X NOC_N|X 3 26 21 22
M$1 \$245 A|Y 15|25|VSS 15|25|VSS sg13_lv_nmos L=0.13u W=0.74u AS=0.2664p
+ AD=0.3034p PS=2.2u PD=1.56u
M$2 15|25|VSS \$245 A|VINS|X 15|25|VSS sg13_lv_nmos L=0.13u W=2.96u AS=0.7252p
+ AD=0.6734p PS=4.92u PD=5.52u
M$6 15|25|VSS A A|Y 15|25|VSS sg13_lv_nmos L=0.13u W=0.74u AS=0.259p AD=0.259p
+ PS=2.18u PD=2.18u
M$7 \$246 A|Y$1 15|25|VSS 15|25|VSS sg13_lv_nmos L=0.13u W=0.74u AS=0.2664p
+ AD=0.3034p PS=2.2u PD=1.56u
M$8 15|25|VSS \$246 A|VINR|X 15|25|VSS sg13_lv_nmos L=0.13u W=2.96u AS=0.7252p
+ AD=0.6734p PS=4.92u PD=5.52u
M$12 15|25|VSS A$1 A|Y$1 15|25|VSS sg13_lv_nmos L=0.13u W=0.74u AS=0.259p
+ AD=0.259p PS=2.18u PD=2.18u
M$13 15|25|VSS \$259 16|PD_BUFF|X 15|25|VSS sg13_lv_nmos L=0.13u W=11.84u
+ AS=2.3606p AD=2.2496p PS=18.96u PD=17.92u
M$29 15|25|VSS A|X \$259 15|25|VSS sg13_lv_nmos L=0.13u W=4.44u AS=0.8436p
+ AD=0.9546p PS=6.72u PD=7.76u
M$35 15|25|VSS \$261 VINS_BUFF|X 15|25|VSS sg13_lv_nmos L=0.13u W=11.84u
+ AS=2.3606p AD=2.2496p PS=18.96u PD=17.92u
M$51 15|25|VSS A|X$1 \$261 15|25|VSS sg13_lv_nmos L=0.13u W=4.44u AS=0.8436p
+ AD=0.9546p PS=6.72u PD=7.76u
M$57 15|25|VSS \$263 17|NOC_N_BUFF|X 15|25|VSS sg13_lv_nmos L=0.13u W=11.84u
+ AS=2.3606p AD=2.2496p PS=18.96u PD=17.92u
M$73 15|25|VSS A|X$2 \$263 15|25|VSS sg13_lv_nmos L=0.13u W=4.44u AS=0.8436p
+ AD=0.9546p PS=6.72u PD=7.76u
M$79 15|25|VSS \$266 16|PD_BUFF|X 15|25|VSS sg13_lv_nmos L=0.13u W=11.84u
+ AS=2.3606p AD=2.2496p PS=18.96u PD=17.92u
M$95 15|25|VSS A|X \$266 15|25|VSS sg13_lv_nmos L=0.13u W=4.44u AS=0.8436p
+ AD=0.9546p PS=6.72u PD=7.76u
M$101 15|25|VSS \$267 VINS_BUFF|X 15|25|VSS sg13_lv_nmos L=0.13u W=11.84u
+ AS=2.3606p AD=2.2496p PS=18.96u PD=17.92u
M$117 15|25|VSS A|X$1 \$267 15|25|VSS sg13_lv_nmos L=0.13u W=4.44u AS=0.8436p
+ AD=0.9546p PS=6.72u PD=7.76u
M$123 15|25|VSS \$268 17|NOC_N_BUFF|X 15|25|VSS sg13_lv_nmos L=0.13u W=11.84u
+ AS=2.3606p AD=2.2496p PS=18.96u PD=17.92u
M$139 15|25|VSS A|X$2 \$268 15|25|VSS sg13_lv_nmos L=0.13u W=4.44u AS=0.8436p
+ AD=0.9546p PS=6.72u PD=7.76u
M$145 15|25|VSS \$269 16|PD_BUFF|X 15|25|VSS sg13_lv_nmos L=0.13u W=11.84u
+ AS=2.3606p AD=2.2496p PS=18.96u PD=17.92u
M$161 15|25|VSS A|X \$269 15|25|VSS sg13_lv_nmos L=0.13u W=4.44u AS=0.8436p
+ AD=0.9546p PS=6.72u PD=7.76u
M$167 15|25|VSS \$270 VINS_BUFF|X 15|25|VSS sg13_lv_nmos L=0.13u W=11.84u
+ AS=2.3606p AD=2.2496p PS=18.96u PD=17.92u
M$183 15|25|VSS A|X$1 \$270 15|25|VSS sg13_lv_nmos L=0.13u W=4.44u AS=0.8436p
+ AD=0.9546p PS=6.72u PD=7.76u
M$189 15|25|VSS \$271 17|NOC_N_BUFF|X 15|25|VSS sg13_lv_nmos L=0.13u W=11.84u
+ AS=2.3606p AD=2.2496p PS=18.96u PD=17.92u
M$205 15|25|VSS A|X$2 \$271 15|25|VSS sg13_lv_nmos L=0.13u W=4.44u AS=0.8436p
+ AD=0.9546p PS=6.72u PD=7.76u
M$211 15|25|VSS \$272 16|PD_BUFF|X 15|25|VSS sg13_lv_nmos L=0.13u W=11.84u
+ AS=2.3606p AD=2.2496p PS=18.96u PD=17.92u
M$227 15|25|VSS A|X \$272 15|25|VSS sg13_lv_nmos L=0.13u W=4.44u AS=0.8436p
+ AD=0.9546p PS=6.72u PD=7.76u
M$233 15|25|VSS \$273 VINS_BUFF|X 15|25|VSS sg13_lv_nmos L=0.13u W=11.84u
+ AS=2.3606p AD=2.2496p PS=18.96u PD=17.92u
M$249 15|25|VSS A|X$1 \$273 15|25|VSS sg13_lv_nmos L=0.13u W=4.44u AS=0.8436p
+ AD=0.9546p PS=6.72u PD=7.76u
M$255 15|25|VSS \$274 17|NOC_N_BUFF|X 15|25|VSS sg13_lv_nmos L=0.13u W=11.84u
+ AS=2.3606p AD=2.2496p PS=18.96u PD=17.92u
M$271 15|25|VSS A|X$2 \$274 15|25|VSS sg13_lv_nmos L=0.13u W=4.44u AS=0.8436p
+ AD=0.9546p PS=6.72u PD=7.76u
M$277 15|25|VSS \$277 14|VINR_BUFF|X 15|25|VSS sg13_lv_nmos L=0.13u W=11.84u
+ AS=2.3606p AD=2.2496p PS=18.96u PD=17.92u
M$293 15|25|VSS A|X$4 \$277 15|25|VSS sg13_lv_nmos L=0.13u W=4.44u AS=0.8436p
+ AD=0.9546p PS=6.72u PD=7.76u
M$299 15|25|VSS \$275 A|X 15|25|VSS sg13_lv_nmos L=0.13u W=11.84u AS=2.3606p
+ AD=2.2496p PS=18.96u PD=17.92u
M$315 15|25|VSS A|X$3 \$275 15|25|VSS sg13_lv_nmos L=0.13u W=4.44u AS=0.8436p
+ AD=0.9546p PS=6.72u PD=7.76u
M$321 15|25|VSS \$278 A|X$3 15|25|VSS sg13_lv_nmos L=0.13u W=2.96u AS=0.6734p
+ AD=0.7252p PS=5.52u PD=4.92u
M$325 15|25|VSS A$2 \$278 15|25|VSS sg13_lv_nmos L=0.13u W=0.74u AS=0.3034p
+ AD=0.2664p PS=1.56u PD=2.2u
M$326 15|25|VSS A|Y$2 A|B|Y 15|25|VSS sg13_lv_nmos L=0.13u W=0.74u AS=0.259p
+ AD=0.259p PS=2.18u PD=2.18u
M$327 15|25|VSS \$279 A|X$1 15|25|VSS sg13_lv_nmos L=0.13u W=11.84u AS=2.3606p
+ AD=2.2496p PS=18.96u PD=17.92u
M$343 15|25|VSS A|X$5 \$279 15|25|VSS sg13_lv_nmos L=0.13u W=4.44u AS=0.8436p
+ AD=0.9546p PS=6.72u PD=7.76u
M$349 15|25|VSS \$289 14|VINR_BUFF|X 15|25|VSS sg13_lv_nmos L=0.13u W=11.84u
+ AS=2.3606p AD=2.2496p PS=18.96u PD=17.92u
M$365 15|25|VSS A|X$4 \$289 15|25|VSS sg13_lv_nmos L=0.13u W=4.44u AS=0.8436p
+ AD=0.9546p PS=6.72u PD=7.76u
M$371 15|25|VSS \$290 A|X$4 15|25|VSS sg13_lv_nmos L=0.13u W=11.84u AS=2.3606p
+ AD=2.2496p PS=18.96u PD=17.92u
M$387 15|25|VSS A|X$6 \$290 15|25|VSS sg13_lv_nmos L=0.13u W=4.44u AS=0.8436p
+ AD=0.9546p PS=6.72u PD=7.76u
M$393 15|25|VSS \$292 A|X$6 15|25|VSS sg13_lv_nmos L=0.13u W=2.96u AS=0.6734p
+ AD=0.7252p PS=5.52u PD=4.92u
M$397 15|25|VSS A$3 \$292 15|25|VSS sg13_lv_nmos L=0.13u W=0.74u AS=0.3034p
+ AD=0.2664p PS=1.56u PD=2.2u
M$398 \$280 A|B|Y$1 15|25|VSS 15|25|VSS sg13_lv_nmos L=0.13u W=0.55u
+ AS=0.247625p AD=0.159375p PS=2.29u PD=1.19u
M$399 15|25|VSS \$280 A$2 15|25|VSS sg13_lv_nmos L=0.13u W=0.74u AS=0.159375p
+ AD=0.2516p PS=1.19u PD=2.16u
M$400 \$297 A|X$10 15|25|VSS 15|25|VSS sg13_lv_nmos L=0.13u W=0.42u AS=0.1428p
+ AD=0.0798p PS=1.52u PD=0.8u
M$401 15|25|VSS \$297 \$298 15|25|VSS sg13_lv_nmos L=0.5u W=0.42u AS=0.0798p
+ AD=0.1428p PS=0.8u PD=1.52u
M$402 \$282 A|VINR|X 15|25|VSS 15|25|VSS sg13_lv_nmos L=0.13u W=0.55u
+ AS=0.247625p AD=0.159375p PS=2.29u PD=1.19u
M$403 15|25|VSS \$282 A$3 15|25|VSS sg13_lv_nmos L=0.13u W=0.74u AS=0.159375p
+ AD=0.2516p PS=1.19u PD=2.16u
M$404 15|25|VSS \$298 \$299 15|25|VSS sg13_lv_nmos L=0.5u W=0.42u AS=0.1426p
+ AD=0.1428p PS=1.16u PD=1.52u
M$405 15|25|VSS \$299 A|X$8 15|25|VSS sg13_lv_nmos L=0.13u W=0.74u AS=0.1426p
+ AD=0.2516p PS=1.16u PD=2.16u
M$406 15|25|VSS A|VINR|X A|Y$2 15|25|VSS sg13_lv_nmos L=0.13u W=1.48u
+ AS=0.3922p AD=0.3959p PS=3.28u PD=3.29u
M$408 15|25|VSS A|B|Y$2 A|Y$3 15|25|VSS sg13_lv_nmos L=0.13u W=0.74u AS=0.259p
+ AD=0.259p PS=2.18u PD=2.18u
M$409 15|25|VSS A|X$11 A|B|Y$2 15|25|VSS sg13_lv_nmos L=0.13u W=0.74u AS=0.259p
+ AD=0.259p PS=2.18u PD=2.18u
M$410 15|25|VSS \$294 A|X$5 15|25|VSS sg13_lv_nmos L=0.13u W=2.96u AS=0.6734p
+ AD=0.7252p PS=5.52u PD=4.92u
M$414 15|25|VSS A$4 \$294 15|25|VSS sg13_lv_nmos L=0.13u W=0.74u AS=0.3034p
+ AD=0.2664p PS=1.56u PD=2.2u
M$415 15|25|VSS \$295 A|X$2 15|25|VSS sg13_lv_nmos L=0.13u W=11.84u AS=2.3606p
+ AD=2.2496p PS=18.96u PD=17.92u
M$431 15|25|VSS A|X$7 \$295 15|25|VSS sg13_lv_nmos L=0.13u W=4.44u AS=0.8436p
+ AD=0.9546p PS=6.72u PD=7.76u
M$437 15|25|VSS \$312 14|VINR_BUFF|X 15|25|VSS sg13_lv_nmos L=0.13u W=11.84u
+ AS=2.3606p AD=2.2496p PS=18.96u PD=17.92u
M$453 15|25|VSS A|X$4 \$312 15|25|VSS sg13_lv_nmos L=0.13u W=4.44u AS=0.8436p
+ AD=0.9546p PS=6.72u PD=7.76u
M$459 15|25|VSS \$332 14|VINR_BUFF|X 15|25|VSS sg13_lv_nmos L=0.13u W=11.84u
+ AS=2.3606p AD=2.2496p PS=18.96u PD=17.92u
M$475 15|25|VSS A|X$4 \$332 15|25|VSS sg13_lv_nmos L=0.13u W=4.44u AS=0.8436p
+ AD=0.9546p PS=6.72u PD=7.76u
M$481 \$313 A|Y$4 15|25|VSS 15|25|VSS sg13_lv_nmos L=0.13u W=0.42u AS=0.1428p
+ AD=0.0798p PS=1.52u PD=0.8u
M$482 15|25|VSS \$313 \$314 15|25|VSS sg13_lv_nmos L=0.5u W=0.42u AS=0.0798p
+ AD=0.1428p PS=0.8u PD=1.52u
M$483 \$326 \$314 15|25|VSS 15|25|VSS sg13_lv_nmos L=0.5u W=0.42u AS=0.1428p
+ AD=0.1426p PS=1.52u PD=1.16u
M$484 15|25|VSS \$326 A|X$12 15|25|VSS sg13_lv_nmos L=0.13u W=0.74u AS=0.1426p
+ AD=0.2516p PS=1.16u PD=2.16u
M$485 15|25|VSS A|B|Y A|Y$4 15|25|VSS sg13_lv_nmos L=0.13u W=5.92u AS=1.2395p
+ AD=1.2395p PS=10.01u PD=10.01u
M$493 \$334 A|X$12 15|25|VSS 15|25|VSS sg13_lv_nmos L=0.13u W=0.42u AS=0.1428p
+ AD=0.0798p PS=1.52u PD=0.8u
M$494 15|25|VSS \$334 \$335 15|25|VSS sg13_lv_nmos L=0.5u W=0.42u AS=0.0798p
+ AD=0.1428p PS=0.8u PD=1.52u
M$495 15|25|VSS \$335 \$336 15|25|VSS sg13_lv_nmos L=0.5u W=0.42u AS=0.1426p
+ AD=0.1428p PS=1.16u PD=1.52u
M$496 15|25|VSS \$336 A|X$10 15|25|VSS sg13_lv_nmos L=0.13u W=0.74u AS=0.1426p
+ AD=0.2516p PS=1.16u PD=2.16u
M$497 \$317 A|X$8 15|25|VSS 15|25|VSS sg13_lv_nmos L=0.13u W=0.42u AS=0.1428p
+ AD=0.0798p PS=1.52u PD=0.8u
M$498 15|25|VSS \$317 \$318 15|25|VSS sg13_lv_nmos L=0.5u W=0.42u AS=0.0798p
+ AD=0.1428p PS=0.8u PD=1.52u
M$499 \$327 \$318 15|25|VSS 15|25|VSS sg13_lv_nmos L=0.5u W=0.42u AS=0.1428p
+ AD=0.1426p PS=1.52u PD=1.16u
M$500 15|25|VSS \$327 A|X$13 15|25|VSS sg13_lv_nmos L=0.13u W=0.74u AS=0.1426p
+ AD=0.2516p PS=1.16u PD=2.16u
M$501 15|25|VSS A|Y$9 A|B|Y$1 15|25|VSS sg13_lv_nmos L=0.13u W=0.74u AS=0.2516p
+ AD=0.1406p PS=2.16u PD=1.12u
M$502 A|B|Y$1 B|X 15|25|VSS 15|25|VSS sg13_lv_nmos L=0.13u W=0.74u AS=0.1406p
+ AD=0.2516p PS=1.12u PD=2.16u
M$503 \$303 A|Y$3 \$309 15|25|VSS sg13_lv_nmos L=0.13u W=0.64u AS=0.2176p
+ AD=0.1216p PS=1.96u PD=1.02u
M$504 15|25|VSS A|B|Y \$309 15|25|VSS sg13_lv_nmos L=0.13u W=0.64u AS=0.1331p
+ AD=0.1216p PS=1.12u PD=1.02u
M$505 15|25|VSS \$303 A|X$9 15|25|VSS sg13_lv_nmos L=0.13u W=1.48u AS=0.2737p
+ AD=0.4218p PS=2.24u PD=3.36u
M$507 \$320 A|X$13 15|25|VSS 15|25|VSS sg13_lv_nmos L=0.13u W=0.42u AS=0.1428p
+ AD=0.0798p PS=1.52u PD=0.8u
M$508 15|25|VSS \$320 \$321 15|25|VSS sg13_lv_nmos L=0.5u W=0.42u AS=0.0798p
+ AD=0.1428p PS=0.8u PD=1.52u
M$509 15|25|VSS A|X$9 A|Y$9 15|25|VSS sg13_lv_nmos L=0.13u W=0.74u AS=0.2516p
+ AD=0.1406p PS=2.16u PD=1.12u
M$510 A|Y$9 A|B|Y$1 15|25|VSS 15|25|VSS sg13_lv_nmos L=0.13u W=0.74u AS=0.1406p
+ AD=0.2516p PS=1.12u PD=2.16u
M$511 \$328 \$321 15|25|VSS 15|25|VSS sg13_lv_nmos L=0.5u W=0.42u AS=0.1428p
+ AD=0.1426p PS=1.52u PD=1.16u
M$512 15|25|VSS \$328 A|X$11 15|25|VSS sg13_lv_nmos L=0.13u W=0.74u AS=0.1426p
+ AD=0.2516p PS=1.16u PD=2.16u
M$513 15|25|VSS A|B|Y A|Y$5 15|25|VSS sg13_lv_nmos L=0.13u W=0.74u AS=0.259p
+ AD=0.259p PS=2.18u PD=2.18u
M$514 15|25|VSS A|B|Y$3 A|Y$6 15|25|VSS sg13_lv_nmos L=0.13u W=0.74u AS=0.259p
+ AD=0.259p PS=2.18u PD=2.18u
M$515 15|25|VSS A|B|Y$4 A|Y$7 15|25|VSS sg13_lv_nmos L=0.13u W=0.74u AS=0.259p
+ AD=0.259p PS=2.18u PD=2.18u
M$516 15|25|VSS A|Y$8 A|B|Y$3 15|25|VSS sg13_lv_nmos L=0.13u W=0.74u AS=0.259p
+ AD=0.259p PS=2.18u PD=2.18u
M$517 15|25|VSS A|VINS|X A|Y$8 15|25|VSS sg13_lv_nmos L=0.13u W=1.48u
+ AS=0.3922p AD=0.3959p PS=3.28u PD=3.29u
M$519 \$325 A|VINS|X 15|25|VSS 15|25|VSS sg13_lv_nmos L=0.13u W=0.55u
+ AS=0.247625p AD=0.159375p PS=2.29u PD=1.19u
M$520 15|25|VSS \$325 A$4 15|25|VSS sg13_lv_nmos L=0.13u W=0.74u AS=0.159375p
+ AD=0.2516p PS=1.19u PD=2.16u
M$521 15|25|VSS \$333 A|X$7 15|25|VSS sg13_lv_nmos L=0.13u W=2.96u AS=0.6734p
+ AD=0.7252p PS=5.52u PD=4.92u
M$525 15|25|VSS A$5 \$333 15|25|VSS sg13_lv_nmos L=0.13u W=0.74u AS=0.3034p
+ AD=0.2664p PS=1.56u PD=2.2u
M$526 15|25|VSS \$349 18|NOC_P_BUFF|X 15|25|VSS sg13_lv_nmos L=0.13u W=11.84u
+ AS=2.3606p AD=2.2496p PS=18.96u PD=17.92u
M$542 15|25|VSS A|X$14 \$349 15|25|VSS sg13_lv_nmos L=0.13u W=4.44u AS=0.8436p
+ AD=0.9546p PS=6.72u PD=7.76u
M$548 \$338 A|Y$5 \$346 15|25|VSS sg13_lv_nmos L=0.13u W=0.64u AS=0.2176p
+ AD=0.1216p PS=1.96u PD=1.02u
M$549 15|25|VSS A|B|Y$2 \$346 15|25|VSS sg13_lv_nmos L=0.13u W=0.64u AS=0.1331p
+ AD=0.1216p PS=1.12u PD=1.02u
M$550 15|25|VSS \$338 X 15|25|VSS sg13_lv_nmos L=0.13u W=1.48u AS=0.2737p
+ AD=0.4218p PS=2.24u PD=3.36u
M$552 15|25|VSS A|B|Y$3 A|Y$10 15|25|VSS sg13_lv_nmos L=0.13u W=5.92u
+ AS=1.2395p AD=1.2395p PS=10.01u PD=10.01u
M$560 \$340 A|Y$7 \$345 15|25|VSS sg13_lv_nmos L=0.13u W=0.64u AS=0.2176p
+ AD=0.1216p PS=1.96u PD=1.02u
M$561 15|25|VSS A|B|Y$3 \$345 15|25|VSS sg13_lv_nmos L=0.13u W=0.64u AS=0.1331p
+ AD=0.1216p PS=1.12u PD=1.02u
M$562 15|25|VSS \$340 B|X 15|25|VSS sg13_lv_nmos L=0.13u W=1.48u AS=0.2737p
+ AD=0.4218p PS=2.24u PD=3.36u
M$564 \$341 A|Y$6 \$344 15|25|VSS sg13_lv_nmos L=0.13u W=0.64u AS=0.2176p
+ AD=0.1216p PS=1.96u PD=1.02u
M$565 15|25|VSS A|B|Y$4 \$344 15|25|VSS sg13_lv_nmos L=0.13u W=0.64u AS=0.1331p
+ AD=0.1216p PS=1.12u PD=1.02u
M$566 15|25|VSS \$341 X 15|25|VSS sg13_lv_nmos L=0.13u W=1.48u AS=0.2737p
+ AD=0.4218p PS=2.24u PD=3.36u
M$568 15|25|VSS A|X$15 A|B|Y$4 15|25|VSS sg13_lv_nmos L=0.13u W=0.74u AS=0.259p
+ AD=0.259p PS=2.18u PD=2.18u
M$569 \$354 \$353 15|25|VSS 15|25|VSS sg13_lv_nmos L=0.5u W=0.42u AS=0.1428p
+ AD=0.1426p PS=1.52u PD=1.16u
M$570 15|25|VSS \$354 A|X$15 15|25|VSS sg13_lv_nmos L=0.13u W=0.74u AS=0.1426p
+ AD=0.2516p PS=1.16u PD=2.16u
M$571 15|25|VSS \$358 18|NOC_P_BUFF|X 15|25|VSS sg13_lv_nmos L=0.13u W=11.84u
+ AS=2.3606p AD=2.2496p PS=18.96u PD=17.92u
M$587 15|25|VSS A|X$14 \$358 15|25|VSS sg13_lv_nmos L=0.13u W=4.44u AS=0.8436p
+ AD=0.9546p PS=6.72u PD=7.76u
M$593 \$359 A|Y$10 15|25|VSS 15|25|VSS sg13_lv_nmos L=0.13u W=0.42u AS=0.1428p
+ AD=0.0798p PS=1.52u PD=0.8u
M$594 15|25|VSS \$359 \$360 15|25|VSS sg13_lv_nmos L=0.5u W=0.42u AS=0.0798p
+ AD=0.1428p PS=0.8u PD=1.52u
M$595 15|25|VSS \$360 \$368 15|25|VSS sg13_lv_nmos L=0.5u W=0.42u AS=0.1426p
+ AD=0.1428p PS=1.16u PD=1.52u
M$596 15|25|VSS \$368 A|X$17 15|25|VSS sg13_lv_nmos L=0.13u W=0.74u AS=0.1426p
+ AD=0.2516p PS=1.16u PD=2.16u
M$597 \$362 A|X$17 15|25|VSS 15|25|VSS sg13_lv_nmos L=0.13u W=0.42u AS=0.1428p
+ AD=0.0798p PS=1.52u PD=0.8u
M$598 15|25|VSS \$362 \$363 15|25|VSS sg13_lv_nmos L=0.5u W=0.42u AS=0.0798p
+ AD=0.1428p PS=0.8u PD=1.52u
M$599 \$352 A|X$16 15|25|VSS 15|25|VSS sg13_lv_nmos L=0.13u W=0.42u AS=0.1428p
+ AD=0.0798p PS=1.52u PD=0.8u
M$600 15|25|VSS \$352 \$353 15|25|VSS sg13_lv_nmos L=0.5u W=0.42u AS=0.0798p
+ AD=0.1428p PS=0.8u PD=1.52u
M$601 15|25|VSS \$363 \$369 15|25|VSS sg13_lv_nmos L=0.5u W=0.42u AS=0.1426p
+ AD=0.1428p PS=1.16u PD=1.52u
M$602 15|25|VSS \$369 A|X$18 15|25|VSS sg13_lv_nmos L=0.13u W=0.74u AS=0.1426p
+ AD=0.2516p PS=1.16u PD=2.16u
M$603 \$365 A|X$18 15|25|VSS 15|25|VSS sg13_lv_nmos L=0.13u W=0.42u AS=0.1428p
+ AD=0.0798p PS=1.52u PD=0.8u
M$604 15|25|VSS \$365 \$366 15|25|VSS sg13_lv_nmos L=0.5u W=0.42u AS=0.0798p
+ AD=0.1428p PS=0.8u PD=1.52u
M$605 15|25|VSS \$366 \$370 15|25|VSS sg13_lv_nmos L=0.5u W=0.42u AS=0.1426p
+ AD=0.1428p PS=1.16u PD=1.52u
M$606 15|25|VSS \$370 A|X$19 15|25|VSS sg13_lv_nmos L=0.13u W=0.74u AS=0.1426p
+ AD=0.2516p PS=1.16u PD=2.16u
M$607 \$351 NOC_N|X 15|25|VSS 15|25|VSS sg13_lv_nmos L=0.13u W=0.55u
+ AS=0.247625p AD=0.159375p PS=2.29u PD=1.19u
M$608 15|25|VSS \$351 A$5 15|25|VSS sg13_lv_nmos L=0.13u W=0.74u AS=0.159375p
+ AD=0.2516p PS=1.19u PD=2.16u
M$609 15|25|VSS \$381 18|NOC_P_BUFF|X 15|25|VSS sg13_lv_nmos L=0.13u W=11.84u
+ AS=2.3606p AD=2.2496p PS=18.96u PD=17.92u
M$625 15|25|VSS A|X$14 \$381 15|25|VSS sg13_lv_nmos L=0.13u W=4.44u AS=0.8436p
+ AD=0.9546p PS=6.72u PD=7.76u
M$631 15|25|VSS \$372 18|NOC_P_BUFF|X 15|25|VSS sg13_lv_nmos L=0.13u W=11.84u
+ AS=2.3606p AD=2.2496p PS=18.96u PD=17.92u
M$647 15|25|VSS A|X$14 \$372 15|25|VSS sg13_lv_nmos L=0.13u W=4.44u AS=0.8436p
+ AD=0.9546p PS=6.72u PD=7.76u
M$653 15|25|VSS \$382 A|X$14 15|25|VSS sg13_lv_nmos L=0.13u W=11.84u AS=2.3606p
+ AD=2.2496p PS=18.96u PD=17.92u
M$669 15|25|VSS A|X$20 \$382 15|25|VSS sg13_lv_nmos L=0.13u W=4.44u AS=0.8436p
+ AD=0.9546p PS=6.72u PD=7.76u
M$675 15|25|VSS \$384 A|X$20 15|25|VSS sg13_lv_nmos L=0.13u W=2.96u AS=0.6734p
+ AD=0.7252p PS=5.52u PD=4.92u
M$679 15|25|VSS A$6 \$384 15|25|VSS sg13_lv_nmos L=0.13u W=0.74u AS=0.3034p
+ AD=0.2664p PS=1.56u PD=2.2u
M$680 \$385 A|X$25 15|25|VSS 15|25|VSS sg13_lv_nmos L=0.13u W=0.42u AS=0.1428p
+ AD=0.0798p PS=1.52u PD=0.8u
M$681 15|25|VSS \$385 \$386 15|25|VSS sg13_lv_nmos L=0.5u W=0.42u AS=0.0798p
+ AD=0.1428p PS=0.8u PD=1.52u
M$682 15|25|VSS \$386 \$387 15|25|VSS sg13_lv_nmos L=0.5u W=0.42u AS=0.1426p
+ AD=0.1428p PS=1.16u PD=1.52u
M$683 15|25|VSS \$387 A|X$21 15|25|VSS sg13_lv_nmos L=0.13u W=0.74u AS=0.1426p
+ AD=0.2516p PS=1.16u PD=2.16u
M$684 \$389 A|X$21 15|25|VSS 15|25|VSS sg13_lv_nmos L=0.13u W=0.42u AS=0.1428p
+ AD=0.0798p PS=1.52u PD=0.8u
M$685 15|25|VSS \$389 \$390 15|25|VSS sg13_lv_nmos L=0.5u W=0.42u AS=0.0798p
+ AD=0.1428p PS=0.8u PD=1.52u
M$686 15|25|VSS \$390 \$391 15|25|VSS sg13_lv_nmos L=0.5u W=0.42u AS=0.1426p
+ AD=0.1428p PS=1.16u PD=1.52u
M$687 15|25|VSS \$391 A|X$22 15|25|VSS sg13_lv_nmos L=0.13u W=0.74u AS=0.1426p
+ AD=0.2516p PS=1.16u PD=2.16u
M$688 \$393 A|X$22 15|25|VSS 15|25|VSS sg13_lv_nmos L=0.13u W=0.42u AS=0.1428p
+ AD=0.0798p PS=1.52u PD=0.8u
M$689 15|25|VSS \$393 \$394 15|25|VSS sg13_lv_nmos L=0.5u W=0.42u AS=0.0798p
+ AD=0.1428p PS=0.8u PD=1.52u
M$690 15|25|VSS \$394 \$395 15|25|VSS sg13_lv_nmos L=0.5u W=0.42u AS=0.1426p
+ AD=0.1428p PS=1.16u PD=1.52u
M$691 15|25|VSS \$395 A|X$23 15|25|VSS sg13_lv_nmos L=0.13u W=0.74u AS=0.1426p
+ AD=0.2516p PS=1.16u PD=2.16u
M$692 \$397 A|X$23 15|25|VSS 15|25|VSS sg13_lv_nmos L=0.13u W=0.42u AS=0.1428p
+ AD=0.0798p PS=1.52u PD=0.8u
M$693 15|25|VSS \$397 \$398 15|25|VSS sg13_lv_nmos L=0.5u W=0.42u AS=0.0798p
+ AD=0.1428p PS=0.8u PD=1.52u
M$694 \$375 A|X$19 15|25|VSS 15|25|VSS sg13_lv_nmos L=0.13u W=0.42u AS=0.1428p
+ AD=0.0798p PS=1.52u PD=0.8u
M$695 15|25|VSS \$375 \$376 15|25|VSS sg13_lv_nmos L=0.5u W=0.42u AS=0.0798p
+ AD=0.1428p PS=0.8u PD=1.52u
M$696 15|25|VSS \$398 \$399 15|25|VSS sg13_lv_nmos L=0.5u W=0.42u AS=0.1426p
+ AD=0.1428p PS=1.16u PD=1.52u
M$697 15|25|VSS \$399 A|X$24 15|25|VSS sg13_lv_nmos L=0.13u W=0.74u AS=0.1426p
+ AD=0.2516p PS=1.16u PD=2.16u
M$698 \$379 \$376 15|25|VSS 15|25|VSS sg13_lv_nmos L=0.5u W=0.42u AS=0.1428p
+ AD=0.1426p PS=1.52u PD=1.16u
M$699 15|25|VSS \$379 A|X$16 15|25|VSS sg13_lv_nmos L=0.13u W=0.74u AS=0.1426p
+ AD=0.2516p PS=1.16u PD=2.16u
M$700 \$416 A|X$28 15|25|VSS 15|25|VSS sg13_lv_nmos L=0.13u W=0.42u AS=0.1428p
+ AD=0.0798p PS=1.52u PD=0.8u
M$701 15|25|VSS \$416 \$418 15|25|VSS sg13_lv_nmos L=0.5u W=0.42u AS=0.0798p
+ AD=0.1428p PS=0.8u PD=1.52u
M$702 15|25|VSS \$418 \$419 15|25|VSS sg13_lv_nmos L=0.5u W=0.42u AS=0.1426p
+ AD=0.1428p PS=1.16u PD=1.52u
M$703 15|25|VSS \$419 A|X$29 15|25|VSS sg13_lv_nmos L=0.13u W=0.74u AS=0.1426p
+ AD=0.2516p PS=1.16u PD=2.16u
M$704 \$421 A|Y$12 15|25|VSS 15|25|VSS sg13_lv_nmos L=0.13u W=0.42u AS=0.1428p
+ AD=0.0798p PS=1.52u PD=0.8u
M$705 15|25|VSS \$421 \$423 15|25|VSS sg13_lv_nmos L=0.5u W=0.42u AS=0.0798p
+ AD=0.1428p PS=0.8u PD=1.52u
M$706 15|25|VSS \$423 \$424 15|25|VSS sg13_lv_nmos L=0.5u W=0.42u AS=0.1426p
+ AD=0.1428p PS=1.16u PD=1.52u
M$707 15|25|VSS \$424 A|X$30 15|25|VSS sg13_lv_nmos L=0.13u W=0.74u AS=0.1426p
+ AD=0.2516p PS=1.16u PD=2.16u
M$708 \$426 A|X$31 15|25|VSS 15|25|VSS sg13_lv_nmos L=0.13u W=0.42u AS=0.1428p
+ AD=0.0798p PS=1.52u PD=0.8u
M$709 15|25|VSS \$426 \$428 15|25|VSS sg13_lv_nmos L=0.5u W=0.42u AS=0.0798p
+ AD=0.1428p PS=0.8u PD=1.52u
M$710 15|25|VSS \$428 \$429 15|25|VSS sg13_lv_nmos L=0.5u W=0.42u AS=0.1426p
+ AD=0.1428p PS=1.16u PD=1.52u
M$711 15|25|VSS \$429 A|X$32 15|25|VSS sg13_lv_nmos L=0.13u W=0.74u AS=0.1426p
+ AD=0.2516p PS=1.16u PD=2.16u
M$712 \$431 A|X$33 15|25|VSS 15|25|VSS sg13_lv_nmos L=0.13u W=0.42u AS=0.1428p
+ AD=0.0798p PS=1.52u PD=0.8u
M$713 15|25|VSS \$431 \$433 15|25|VSS sg13_lv_nmos L=0.5u W=0.42u AS=0.0798p
+ AD=0.1428p PS=0.8u PD=1.52u
M$714 15|25|VSS \$433 \$434 15|25|VSS sg13_lv_nmos L=0.5u W=0.42u AS=0.1426p
+ AD=0.1428p PS=1.16u PD=1.52u
M$715 15|25|VSS \$434 A|X$34 15|25|VSS sg13_lv_nmos L=0.13u W=0.74u AS=0.1426p
+ AD=0.2516p PS=1.16u PD=2.16u
M$716 \$436 A|Y$11 15|25|VSS 15|25|VSS sg13_lv_nmos L=0.13u W=0.42u AS=0.1428p
+ AD=0.0798p PS=1.52u PD=0.8u
M$717 15|25|VSS \$436 \$437 15|25|VSS sg13_lv_nmos L=0.5u W=0.42u AS=0.0798p
+ AD=0.1428p PS=0.8u PD=1.52u
M$718 15|25|VSS \$437 \$438 15|25|VSS sg13_lv_nmos L=0.5u W=0.42u AS=0.1426p
+ AD=0.1428p PS=1.16u PD=1.52u
M$719 15|25|VSS \$438 A|X$35 15|25|VSS sg13_lv_nmos L=0.13u W=0.74u AS=0.1426p
+ AD=0.2516p PS=1.16u PD=2.16u
M$720 \$403 A|Y$11 15|25|VSS 15|25|VSS sg13_lv_nmos L=0.13u W=0.42u AS=0.1428p
+ AD=0.0798p PS=1.52u PD=0.8u
M$721 15|25|VSS \$403 \$404 15|25|VSS sg13_lv_nmos L=0.5u W=0.42u AS=0.0798p
+ AD=0.1428p PS=0.8u PD=1.52u
M$722 \$411 \$404 15|25|VSS 15|25|VSS sg13_lv_nmos L=0.5u W=0.42u AS=0.1428p
+ AD=0.1426p PS=1.52u PD=1.16u
M$723 15|25|VSS \$411 A|X$25 15|25|VSS sg13_lv_nmos L=0.13u W=0.74u AS=0.1426p
+ AD=0.2516p PS=1.16u PD=2.16u
M$724 15|25|VSS A|X$36 A|Y$11 15|25|VSS sg13_lv_nmos L=0.13u W=0.74u AS=0.2516p
+ AD=0.1406p PS=2.16u PD=1.12u
M$725 A|Y$11 A|B|Y$1 15|25|VSS 15|25|VSS sg13_lv_nmos L=0.13u W=0.74u
+ AS=0.1406p AD=0.2516p PS=1.12u PD=2.16u
M$726 15|25|VSS A|X$36 A|Y$13 15|25|VSS sg13_lv_nmos L=0.13u W=1.48u AS=0.3922p
+ AD=0.3959p PS=3.28u PD=3.29u
M$728 15|25|VSS A|Y$14 A|Y$12 15|25|VSS sg13_lv_nmos L=0.13u W=0.74u AS=0.2516p
+ AD=0.1406p PS=2.16u PD=1.12u
M$729 A|Y$12 A|B|X 15|25|VSS 15|25|VSS sg13_lv_nmos L=0.13u W=0.74u AS=0.1406p
+ AD=0.2516p PS=1.12u PD=2.16u
M$730 15|25|VSS A|B|Y$1 A|Y$14 15|25|VSS sg13_lv_nmos L=0.13u W=0.74u AS=0.259p
+ AD=0.259p PS=2.18u PD=2.18u
M$731 15|25|VSS NOC_P|X \$444 15|25|VSS sg13_lv_nmos L=0.13u W=0.55u
+ AS=0.159375p AD=0.247625p PS=1.19u PD=2.29u
M$732 15|25|VSS \$444 A$6 15|25|VSS sg13_lv_nmos L=0.13u W=0.74u AS=0.159375p
+ AD=0.2516p PS=1.19u PD=2.16u
M$733 15|25|VSS A|Y$15 A0|Y 15|25|VSS sg13_lv_nmos L=0.13u W=2.96u AS=0.6734p
+ AD=0.6734p PS=5.52u PD=5.52u
M$737 15|25|VSS A|B|X A|Y$16 15|25|VSS sg13_lv_nmos L=0.13u W=0.74u AS=0.259p
+ AD=0.259p PS=2.18u PD=2.18u
M$738 \$405 A|X$24 15|25|VSS 15|25|VSS sg13_lv_nmos L=0.13u W=0.42u AS=0.1428p
+ AD=0.0798p PS=1.52u PD=0.8u
M$739 15|25|VSS \$405 \$406 15|25|VSS sg13_lv_nmos L=0.5u W=0.42u AS=0.0798p
+ AD=0.1428p PS=0.8u PD=1.52u
M$740 \$412 \$406 15|25|VSS 15|25|VSS sg13_lv_nmos L=0.5u W=0.42u AS=0.1428p
+ AD=0.1426p PS=1.52u PD=1.16u
M$741 15|25|VSS \$412 A|X$26 15|25|VSS sg13_lv_nmos L=0.13u W=0.74u AS=0.1426p
+ AD=0.2516p PS=1.16u PD=2.16u
M$742 \$447 A|X$27 15|25|VSS 15|25|VSS sg13_lv_nmos L=0.13u W=0.42u AS=0.1428p
+ AD=0.0798p PS=1.52u PD=0.8u
M$743 15|25|VSS \$447 \$448 15|25|VSS sg13_lv_nmos L=0.5u W=0.42u AS=0.0798p
+ AD=0.1428p PS=0.8u PD=1.52u
M$744 \$408 A|X$26 15|25|VSS 15|25|VSS sg13_lv_nmos L=0.13u W=0.42u AS=0.1428p
+ AD=0.0798p PS=1.52u PD=0.8u
M$745 15|25|VSS \$408 \$409 15|25|VSS sg13_lv_nmos L=0.5u W=0.42u AS=0.0798p
+ AD=0.1428p PS=0.8u PD=1.52u
M$746 \$413 \$409 15|25|VSS 15|25|VSS sg13_lv_nmos L=0.5u W=0.42u AS=0.1428p
+ AD=0.1426p PS=1.52u PD=1.16u
M$747 15|25|VSS \$413 A|X$27 15|25|VSS sg13_lv_nmos L=0.13u W=0.74u AS=0.1426p
+ AD=0.2516p PS=1.16u PD=2.16u
M$748 15|25|VSS \$448 \$449 15|25|VSS sg13_lv_nmos L=0.5u W=0.42u AS=0.1426p
+ AD=0.1428p PS=1.16u PD=1.52u
M$749 15|25|VSS \$449 A|X$37 15|25|VSS sg13_lv_nmos L=0.13u W=0.74u AS=0.1426p
+ AD=0.2516p PS=1.16u PD=2.16u
M$750 \$451 A|X$37 15|25|VSS 15|25|VSS sg13_lv_nmos L=0.13u W=0.42u AS=0.1428p
+ AD=0.0798p PS=1.52u PD=0.8u
M$751 15|25|VSS \$451 \$452 15|25|VSS sg13_lv_nmos L=0.5u W=0.42u AS=0.0798p
+ AD=0.1428p PS=0.8u PD=1.52u
M$752 15|25|VSS \$452 \$453 15|25|VSS sg13_lv_nmos L=0.5u W=0.42u AS=0.1426p
+ AD=0.1428p PS=1.16u PD=1.52u
M$753 15|25|VSS \$453 A|X$38 15|25|VSS sg13_lv_nmos L=0.13u W=0.74u AS=0.1426p
+ AD=0.2516p PS=1.16u PD=2.16u
M$754 \$458 A|Y$12 15|25|VSS 15|25|VSS sg13_lv_nmos L=0.13u W=0.42u AS=0.1428p
+ AD=0.0798p PS=1.52u PD=0.8u
M$755 15|25|VSS \$458 \$459 15|25|VSS sg13_lv_nmos L=0.5u W=0.42u AS=0.0798p
+ AD=0.1428p PS=0.8u PD=1.52u
M$756 \$490 \$459 15|25|VSS 15|25|VSS sg13_lv_nmos L=0.5u W=0.42u AS=0.1428p
+ AD=0.1426p PS=1.52u PD=1.16u
M$757 15|25|VSS \$490 A|X$39 15|25|VSS sg13_lv_nmos L=0.13u W=0.74u AS=0.1426p
+ AD=0.2516p PS=1.16u PD=2.16u
M$758 \$461 A|X$46 15|25|VSS 15|25|VSS sg13_lv_nmos L=0.13u W=0.42u AS=0.1428p
+ AD=0.0798p PS=1.52u PD=0.8u
M$759 15|25|VSS \$461 \$462 15|25|VSS sg13_lv_nmos L=0.5u W=0.42u AS=0.0798p
+ AD=0.1428p PS=0.8u PD=1.52u
M$760 \$492 \$462 15|25|VSS 15|25|VSS sg13_lv_nmos L=0.5u W=0.42u AS=0.1428p
+ AD=0.1426p PS=1.52u PD=1.16u
M$761 15|25|VSS \$492 A|X$40 15|25|VSS sg13_lv_nmos L=0.13u W=0.74u AS=0.1426p
+ AD=0.2516p PS=1.16u PD=2.16u
M$762 \$464 A|X$30 15|25|VSS 15|25|VSS sg13_lv_nmos L=0.13u W=0.42u AS=0.1428p
+ AD=0.0798p PS=1.52u PD=0.8u
M$763 15|25|VSS \$464 \$465 15|25|VSS sg13_lv_nmos L=0.5u W=0.42u AS=0.0798p
+ AD=0.1428p PS=0.8u PD=1.52u
M$764 \$493 \$465 15|25|VSS 15|25|VSS sg13_lv_nmos L=0.5u W=0.42u AS=0.1428p
+ AD=0.1426p PS=1.52u PD=1.16u
M$765 15|25|VSS \$493 A|X$41 15|25|VSS sg13_lv_nmos L=0.13u W=0.74u AS=0.1426p
+ AD=0.2516p PS=1.16u PD=2.16u
M$766 \$467 A|X$32 15|25|VSS 15|25|VSS sg13_lv_nmos L=0.13u W=0.42u AS=0.1428p
+ AD=0.0798p PS=1.52u PD=0.8u
M$767 15|25|VSS \$467 \$468 15|25|VSS sg13_lv_nmos L=0.5u W=0.42u AS=0.0798p
+ AD=0.1428p PS=0.8u PD=1.52u
M$768 \$494 \$468 15|25|VSS 15|25|VSS sg13_lv_nmos L=0.5u W=0.42u AS=0.1428p
+ AD=0.1426p PS=1.52u PD=1.16u
M$769 15|25|VSS \$494 A|X$42 15|25|VSS sg13_lv_nmos L=0.13u W=0.74u AS=0.1426p
+ AD=0.2516p PS=1.16u PD=2.16u
M$770 \$470 A|X$42 15|25|VSS 15|25|VSS sg13_lv_nmos L=0.13u W=0.42u AS=0.1428p
+ AD=0.0798p PS=1.52u PD=0.8u
M$771 15|25|VSS \$470 \$471 15|25|VSS sg13_lv_nmos L=0.5u W=0.42u AS=0.0798p
+ AD=0.1428p PS=0.8u PD=1.52u
M$772 \$495 \$471 15|25|VSS 15|25|VSS sg13_lv_nmos L=0.5u W=0.42u AS=0.1428p
+ AD=0.1426p PS=1.52u PD=1.16u
M$773 15|25|VSS \$495 A|X$43 15|25|VSS sg13_lv_nmos L=0.13u W=0.74u AS=0.1426p
+ AD=0.2516p PS=1.16u PD=2.16u
M$774 \$473 A|X$34 15|25|VSS 15|25|VSS sg13_lv_nmos L=0.13u W=0.42u AS=0.1428p
+ AD=0.0798p PS=1.52u PD=0.8u
M$775 15|25|VSS \$473 \$474 15|25|VSS sg13_lv_nmos L=0.5u W=0.42u AS=0.0798p
+ AD=0.1428p PS=0.8u PD=1.52u
M$776 \$496 \$474 15|25|VSS 15|25|VSS sg13_lv_nmos L=0.5u W=0.42u AS=0.1428p
+ AD=0.1426p PS=1.52u PD=1.16u
M$777 15|25|VSS \$496 A0|X 15|25|VSS sg13_lv_nmos L=0.13u W=0.74u AS=0.1426p
+ AD=0.2516p PS=1.16u PD=2.16u
M$778 \$476 A|X$35 15|25|VSS 15|25|VSS sg13_lv_nmos L=0.13u W=0.42u AS=0.1428p
+ AD=0.0798p PS=1.52u PD=0.8u
M$779 15|25|VSS \$476 \$477 15|25|VSS sg13_lv_nmos L=0.5u W=0.42u AS=0.0798p
+ AD=0.1428p PS=0.8u PD=1.52u
M$780 \$497 \$477 15|25|VSS 15|25|VSS sg13_lv_nmos L=0.5u W=0.42u AS=0.1428p
+ AD=0.1426p PS=1.52u PD=1.16u
M$781 15|25|VSS \$497 A|X$44 15|25|VSS sg13_lv_nmos L=0.13u W=0.74u AS=0.1426p
+ AD=0.2516p PS=1.16u PD=2.16u
M$782 \$479 A|X$44 15|25|VSS 15|25|VSS sg13_lv_nmos L=0.13u W=0.42u AS=0.1428p
+ AD=0.0798p PS=1.52u PD=0.8u
M$783 15|25|VSS \$479 \$480 15|25|VSS sg13_lv_nmos L=0.5u W=0.42u AS=0.0798p
+ AD=0.1428p PS=0.8u PD=1.52u
M$784 \$498 \$480 15|25|VSS 15|25|VSS sg13_lv_nmos L=0.5u W=0.42u AS=0.1428p
+ AD=0.1426p PS=1.52u PD=1.16u
M$785 15|25|VSS \$498 A|X$45 15|25|VSS sg13_lv_nmos L=0.13u W=0.74u AS=0.1426p
+ AD=0.2516p PS=1.16u PD=2.16u
M$786 15|25|VSS A|Y$13 A0|Y$1 15|25|VSS sg13_lv_nmos L=0.13u W=2.96u AS=0.6734p
+ AD=0.6734p PS=5.52u PD=5.52u
M$790 \$483 12|S|VSEL_OL 15|25|VSS 15|25|VSS sg13_lv_nmos L=0.13u W=0.55u
+ AS=0.187p AD=0.18945p PS=1.78u PD=1.27u
M$791 15|25|VSS 12|S|VSEL_OL \$508 15|25|VSS sg13_lv_nmos L=0.13u W=0.74u
+ AS=0.18945p AD=0.13135p PS=1.27u PD=1.095u
M$792 \$508 11|A1|VINR_OL \$484 15|25|VSS sg13_lv_nmos L=0.13u W=0.74u
+ AS=0.13135p AD=0.1628p PS=1.095u PD=1.18u
M$793 \$484 A0|Y$1 \$507 15|25|VSS sg13_lv_nmos L=0.13u W=0.74u AS=0.1628p
+ AD=0.3367p PS=1.18u PD=1.65u
M$794 \$507 \$483 15|25|VSS 15|25|VSS sg13_lv_nmos L=0.13u W=0.74u AS=0.3367p
+ AD=0.148p PS=1.65u PD=1.14u
M$795 15|25|VSS \$484 NOC_N|X 15|25|VSS sg13_lv_nmos L=0.13u W=1.48u AS=0.3515p
+ AD=0.518p PS=2.43u PD=3.62u
M$797 \$485 12|S|VSEL_OL 15|25|VSS 15|25|VSS sg13_lv_nmos L=0.13u W=0.55u
+ AS=0.187p AD=0.18945p PS=1.78u PD=1.27u
M$798 15|25|VSS 12|S|VSEL_OL \$506 15|25|VSS sg13_lv_nmos L=0.13u W=0.74u
+ AS=0.18945p AD=0.13135p PS=1.27u PD=1.095u
M$799 \$506 10|A1|VINS_OL \$486 15|25|VSS sg13_lv_nmos L=0.13u W=0.74u
+ AS=0.13135p AD=0.1628p PS=1.095u PD=1.18u
M$800 \$486 A0|Y \$505 15|25|VSS sg13_lv_nmos L=0.13u W=0.74u AS=0.1628p
+ AD=0.3367p PS=1.18u PD=1.65u
M$801 \$505 \$485 15|25|VSS 15|25|VSS sg13_lv_nmos L=0.13u W=0.74u AS=0.3367p
+ AD=0.148p PS=1.65u PD=1.14u
M$802 15|25|VSS \$486 NOC_P|X 15|25|VSS sg13_lv_nmos L=0.13u W=1.48u AS=0.3515p
+ AD=0.518p PS=2.43u PD=3.62u
M$804 \$487 A|X$38 15|25|VSS 15|25|VSS sg13_lv_nmos L=0.13u W=0.42u AS=0.1428p
+ AD=0.0798p PS=1.52u PD=0.8u
M$805 15|25|VSS \$487 \$488 15|25|VSS sg13_lv_nmos L=0.5u W=0.42u AS=0.0798p
+ AD=0.1428p PS=0.8u PD=1.52u
M$806 \$499 \$488 15|25|VSS 15|25|VSS sg13_lv_nmos L=0.5u W=0.42u AS=0.1428p
+ AD=0.1426p PS=1.52u PD=1.16u
M$807 15|25|VSS \$499 A1|X 15|25|VSS sg13_lv_nmos L=0.13u W=0.74u AS=0.1426p
+ AD=0.2516p PS=1.16u PD=2.16u
M$808 \$509 A|X$39 15|25|VSS 15|25|VSS sg13_lv_nmos L=0.13u W=0.42u AS=0.1428p
+ AD=0.0798p PS=1.52u PD=0.8u
M$809 15|25|VSS \$509 \$510 15|25|VSS sg13_lv_nmos L=0.5u W=0.42u AS=0.0798p
+ AD=0.1428p PS=0.8u PD=1.52u
M$810 15|25|VSS \$510 \$511 15|25|VSS sg13_lv_nmos L=0.5u W=0.42u AS=0.1426p
+ AD=0.1428p PS=1.16u PD=1.52u
M$811 15|25|VSS \$511 A|X$28 15|25|VSS sg13_lv_nmos L=0.13u W=0.74u AS=0.1426p
+ AD=0.2516p PS=1.16u PD=2.16u
M$812 \$512 A|X$29 15|25|VSS 15|25|VSS sg13_lv_nmos L=0.13u W=0.42u AS=0.1428p
+ AD=0.0798p PS=1.52u PD=0.8u
M$813 15|25|VSS \$512 \$513 15|25|VSS sg13_lv_nmos L=0.5u W=0.42u AS=0.0798p
+ AD=0.1428p PS=0.8u PD=1.52u
M$814 15|25|VSS \$513 \$514 15|25|VSS sg13_lv_nmos L=0.5u W=0.42u AS=0.1426p
+ AD=0.1428p PS=1.16u PD=1.52u
M$815 15|25|VSS \$514 A|X$46 15|25|VSS sg13_lv_nmos L=0.13u W=0.74u AS=0.1426p
+ AD=0.2516p PS=1.16u PD=2.16u